MODEL 1
REMARK VINA RESULT:      -7.6      0.000      0.000
REMARK  9 active torsions:
REMARK  status: ('A' for Active; 'I' for Inactive)
REMARK    1  A    between atoms: C_9  and  C_5 
REMARK    2  A    between atoms: C_9  and  C_10 
REMARK    3  A    between atoms: C_9  and  N_16 
REMARK    4  A    between atoms: C_10  and  C_11 
REMARK    5  A    between atoms: N_16  and  C_17 
REMARK    6  A    between atoms: C_17  and  C_18 
REMARK    7  A    between atoms: N_20  and  C_27 
REMARK    8  A    between atoms: C_27  and  C_28 
REMARK    9  A    between atoms: C_28  and  N_29 
ROOT
ATOM      1  N   UNL d   1       1.959  26.459  30.101  0.00  0.00     0.098 N 
ATOM      2  H   UNL d   1       1.475  25.947  30.826  0.00  0.00     0.317 HD
ENDROOT
BRANCH   1   3
ATOM      3  C   UNL d   1       1.087  27.517  29.530  0.00  0.00     0.274 C 
BRANCH   3   4
ATOM      4  C   UNL d   1       1.404  28.855  30.207  0.00  0.00     0.081 C 
BRANCH   4   5
ATOM      5  C   UNL d   1       0.199  29.543  30.757  0.00  0.00    -0.049 A 
ATOM      6  C   UNL d   1       0.108  30.940  31.053  0.00  0.00     0.015 A 
ATOM      7  C   UNL d   1      -1.128  31.286  31.546  0.00  0.00     0.050 A 
ATOM      8  S   UNL d   1      -2.175  29.941  31.656  0.00  0.00    -0.113 SA
ATOM      9  C   UNL d   1      -0.985  28.890  31.034  0.00  0.00     0.056 A 
ENDBRANCH   4   5
ENDBRANCH   3   4
BRANCH   3  10
ATOM     10  C   UNL d   1       1.105  27.801  28.023  0.00  0.00     0.042 C 
ATOM     11  C   UNL d   1       1.517  29.058  27.618  0.00  0.00     0.028 C 
ATOM     12  C   UNL d   1       1.278  29.466  26.310  0.00  0.00     0.010 C 
ATOM     13  C   UNL d   1       0.766  28.571  25.385  0.00  0.00    -0.047 C 
ATOM     14  C   UNL d   1       0.420  29.025  24.004  0.00  0.00     0.049 C 
ATOM     15  C   UNL d   1       0.589  27.266  25.823  0.00  0.00     0.095 C 
ATOM     16  N   UNL d   1       0.714  26.871  27.118  0.00  0.00    -0.367 N 
ATOM     17  HN  UNL d   1       0.521  25.909  27.398  1.00  0.00     0.165 HD
ENDBRANCH   3  10
ENDBRANCH   1   3
BRANCH   1  18
ATOM     18  C   UNL d   1       3.311  26.778  30.492  0.00  0.00     0.311 C 
BRANCH  18  19
ATOM     19  C   UNL d   1       4.223  26.762  29.318  0.00  0.00    -0.002 C 
ATOM     20  C   UNL d   1       4.267  25.699  28.441  0.00  0.00     0.101 C 
ATOM     21  N   UNL d   1       5.220  25.857  27.486  0.00  0.00    -0.354 N 
ATOM     22  C   UNL d   1       5.429  27.217  27.406  0.00  0.00     0.045 A 
ATOM     23  C   UNL d   1       4.844  27.786  28.562  0.00  0.00     0.000 A 
ATOM     24  C   UNL d   1       5.933  28.016  26.377  0.00  0.00     0.030 A 
ATOM     25  C   UNL d   1       4.754  29.185  28.671  0.00  0.00     0.014 A 
ATOM     26  C   UNL d   1       5.201  29.977  27.625  0.00  0.00     0.001 A 
ATOM     27  C   UNL d   1       5.788  29.402  26.503  0.00  0.00     0.002 A 
BRANCH  21  28
ATOM     28  C   UNL d   1       5.589  24.791  26.552  0.00  0.00     0.156 C 
BRANCH  28  29
ATOM     29  C   UNL d   1       7.113  24.621  26.298  0.00  0.00     0.254 C 
BRANCH  29  30
ATOM     30  N   UNL d   1       7.524  24.393  24.825  0.00  0.00    -0.077 N 
ATOM     31  H   UNL d   1       8.555  24.400  24.787  0.00  0.00     0.279 HD
ATOM     32  C   UNL d   1       7.052  23.134  24.208  0.00  0.00     0.269 C 
ATOM     33  C   UNL d   1       7.045  25.445  23.909  0.00  0.00     0.269 C 
ENDBRANCH  29  30
ENDBRANCH  28  29
ENDBRANCH  21  28
ENDBRANCH  18  19
ENDBRANCH   1  18
TORSDOF 9
ENDMDL
