REMARK  6 active torsions:
REMARK  status: ('A' for Active; 'I' for Inactive)
REMARK    1  A    between atoms: C_2  and  C_3 
REMARK    2  A    between atoms: C_7  and  N_8 
REMARK       I    between atoms: N_8  and  C_9 
REMARK       I    between atoms: C_9  and  N_11 
REMARK    3  A    between atoms: N_11  and  C_12 
REMARK    4  A    between atoms: C_12  and  C_13 
REMARK    5  A    between atoms: C_13  and  C_14 
REMARK    6  A    between atoms: N_19  and  C_20 
ROOT
ATOM      1  N   UNL d   1       4.040   3.895   0.667  0.00  0.00    -0.309 N 
ATOM      2  C   UNL d   1       4.410   5.115   0.167  0.00  0.00     0.320 C 
ATOM      3  O   UNL d   1       5.565   5.296  -0.172  0.00  0.00    -0.247 OA
ATOM      4  N   UNL d   1       3.538   6.136  -0.069  0.00  0.00    -0.342 N 
ATOM      5  H   UNL d   1       4.741   3.198   0.433  0.00  0.00     0.170 HD
ATOM      6  H   UNL d   1       3.966   6.755  -0.759  0.00  0.00     0.164 HD
ENDROOT
BRANCH   4   7
ATOM      7  C   UNL d   1       2.184   6.566   0.370  0.00  0.00     0.132 C 
BRANCH   7   8
ATOM      8  C   UNL d   1       2.072   7.176   1.850  0.00  0.00     0.096 C 
BRANCH   8   9
ATOM      9  C   UNL d   1       2.238   8.647   1.913  0.00  0.00     0.088 C 
ATOM     10  N   UNL d   1       1.501   9.501   2.593  0.00  0.00    -0.354 N 
ATOM     11  C   UNL d   1       1.946  10.739   2.205  0.00  0.00     0.107 C 
ATOM     12  HN  UNL d   1       0.761   9.288   3.262  1.00  0.00     0.166 HD
ATOM     13  C   UNL d   1       2.975  10.625   1.303  0.00  0.00     0.114 C 
ATOM     14  N   UNL d   1       3.258   9.298   1.280  0.00  0.00    -0.289 N 
BRANCH  14  15
ATOM     15  C   UNL d   1       4.353   8.662   0.591  0.00  0.00     0.465 C 
ATOM     16  F   UNL d   1       4.027   8.502  -0.722  0.00  0.00    -0.191 F 
ATOM     17  F   UNL d   1       5.510   9.355   0.634  0.00  0.00    -0.191 F 
ENDBRANCH  14  15
ENDBRANCH   8   9
ENDBRANCH   7   8
ENDBRANCH   4   7
BRANCH   1  18
ATOM     18  C   UNL d   1       2.806   3.447   1.155  0.00  0.00     0.036 C 
ATOM     19  C   UNL d   1       1.978   4.301   1.818  0.00  0.00     0.029 C 
ATOM     20  C   UNL d   1       0.592   4.214   1.818  0.00  0.00     0.003 C 
ATOM     21  C   UNL d   1       0.053   3.006   1.509  0.00  0.00     0.007 C 
ATOM     22  C   UNL d   1       0.949   1.953   1.296  0.00  0.00    -0.056 C 
ATOM     23  C   UNL d   1       2.346   2.170   1.138  0.00  0.00     0.036 C 
BRANCH  22  24
ATOM     24  C   UNL d   1       0.403   0.570   1.220  0.00  0.00     0.034 C 
ATOM     25  C   UNL d   1       0.879  -0.065  -0.068  0.00  0.00     0.010 C 
ENDBRANCH  22  24
ENDBRANCH   1  18
TORSDOF 6
