REMARK  9 active torsions:
REMARK  status: ('A' for Active; 'I' for Inactive)
REMARK    1  A    between atoms: C_9  and  C_5 
REMARK    2  A    between atoms: C_9  and  C_10 
REMARK    3  A    between atoms: C_9  and  N_16 
REMARK    4  A    between atoms: C_10  and  C_11 
REMARK    5  A    between atoms: N_16  and  C_17 
REMARK    6  A    between atoms: C_17  and  C_18 
REMARK    7  A    between atoms: N_20  and  C_27 
REMARK    8  A    between atoms: C_27  and  C_28 
REMARK    9  A    between atoms: C_28  and  N_29 
ROOT
ATOM      1  N   UNL d   1      -1.870   5.243   2.328  0.00  0.00     0.098 N 
ATOM      2  H   UNL d   1      -2.367   6.122   2.377  0.00  0.00     0.317 HD
ENDROOT
BRANCH   1   3
ATOM      3  C   UNL d   1      -0.651   5.372   1.488  0.00  0.00     0.274 C 
BRANCH   3   4
ATOM      4  C   UNL d   1      -1.022   6.030   0.155  0.00  0.00     0.081 C 
BRANCH   4   5
ATOM      5  C   UNL d   1      -2.034   5.260  -0.627  0.00  0.00    -0.049 A 
ATOM      6  C   UNL d   1      -2.053   3.837  -0.781  0.00  0.00     0.015 A 
ATOM      7  C   UNL d   1      -3.107   3.413  -1.554  0.00  0.00     0.050 A 
ATOM      8  S   UNL d   1      -4.070   4.715  -2.097  0.00  0.00    -0.113 SA
ATOM      9  C   UNL d   1      -3.089   5.853  -1.290  0.00  0.00     0.056 A 
ENDBRANCH   4   5
ENDBRANCH   3   4
BRANCH   3  10
ATOM     10  C   UNL d   1       0.566   6.147   2.008  0.00  0.00     0.042 C 
ATOM     11  C   UNL d   1       1.541   5.426   2.674  0.00  0.00     0.028 C 
ATOM     12  C   UNL d   1       2.505   6.104   3.412  0.00  0.00     0.010 C 
ATOM     13  C   UNL d   1       2.576   7.487   3.361  0.00  0.00    -0.047 C 
ATOM     14  C   UNL d   1       3.548   8.227   4.221  0.00  0.00     0.049 C 
ATOM     15  C   UNL d   1       1.697   8.117   2.491  0.00  0.00     0.095 C 
ATOM     16  N   UNL d   1       0.680   7.488   1.844  0.00  0.00    -0.367 N 
ATOM     17  HN  UNL d   1       0.027   8.006   1.256  1.00  0.00     0.165 HD
ENDBRANCH   3  10
ENDBRANCH   1   3
BRANCH   1  18
ATOM     18  C   UNL d   1      -1.784   4.611   3.622  0.00  0.00     0.311 C 
BRANCH  18  19
ATOM     19  C   UNL d   1      -0.996   5.442   4.570  0.00  0.00    -0.002 C 
ATOM     20  C   UNL d   1       0.235   5.041   5.045  0.00  0.00     0.101 C 
ATOM     21  N   UNL d   1       0.746   5.911   5.954  0.00  0.00    -0.354 N 
ATOM     22  C   UNL d   1       0.132   7.116   5.686  0.00  0.00     0.045 A 
ATOM     23  C   UNL d   1      -0.977   6.829   4.854  0.00  0.00     0.000 A 
ATOM     24  C   UNL d   1       0.516   8.431   5.959  0.00  0.00     0.030 A 
ATOM     25  C   UNL d   1      -1.698   7.890   4.278  0.00  0.00     0.014 A 
ATOM     26  C   UNL d   1      -1.283   9.193   4.502  0.00  0.00     0.001 A 
ATOM     27  C   UNL d   1      -0.201   9.458   5.335  0.00  0.00     0.002 A 
BRANCH  21  28
ATOM     28  C   UNL d   1       1.948   5.622   6.738  0.00  0.00     0.156 C 
BRANCH  28  29
ATOM     29  C   UNL d   1       1.733   4.722   7.987  0.00  0.00     0.254 C 
BRANCH  29  30
ATOM     30  N   UNL d   1       1.360   3.250   7.694  0.00  0.00    -0.077 N 
ATOM     31  H   UNL d   1       2.118   2.848   7.121  0.00  0.00     0.279 HD
ATOM     32  C   UNL d   1       1.170   2.382   8.876  0.00  0.00     0.269 C 
ATOM     33  C   UNL d   1       0.107   3.099   6.931  0.00  0.00     0.269 C 
ENDBRANCH  29  30
ENDBRANCH  28  29
ENDBRANCH  21  28
ENDBRANCH  18  19
ENDBRANCH   1  18
TORSDOF 9
