@<TRIPOS>MOLECULE
*****
 76 80 0 0 0
SMALL
GASTEIGER

@<TRIPOS>ATOM
      1 C           1.5715   -0.8709    2.1644 C.3     1  UNL1       -0.0216
      2 C           0.3581   -0.1677    1.4725 C.3     1  UNL1       -0.0238
      3 H           0.6006    0.0199    0.4210 H       1  UNL1        0.0848
      4 C          -0.7335   -1.2174    1.6455 C.3     1  UNL1       -0.0097
      5 C          -1.1957   -1.2545    3.1008 C.3     1  UNL1       -0.0432
      6 C          -1.9438    0.0284    3.3909 C.3     1  UNL1       -0.0123
      7 C          -0.9995    1.2187    3.3333 C.3     1  UNL1       -0.0317
      8 N          -0.2356    1.2660    2.0120 N.4     1  UNL1        0.2372
      9 H          -0.9788    1.4490    1.3185 H       1  UNL1        0.2036
     10 C           0.5788    2.6318    1.8783 C.3     1  UNL1       -0.0302
     11 C           1.6672    2.8133    2.9449 C.3     1  UNL1        0.0031
     12 C           2.5707    1.6632    2.7713 C.3     1  UNL1        0.0164
     13 N           3.2420    1.5832    1.4916 N.am    1  UNL1       -0.3138
     14 C           4.5373    1.1234    1.3166 C.2     1  UNL1        0.2304
     15 O           4.8999    0.8345    0.1967 O.2     1  UNL1       -0.2741
     16 C           5.3450    0.8865    2.6119 C.3     1  UNL1        0.0900
     17 N           5.2509    2.0526    3.5468 N.pl3   1  UNL1       -0.3025
     18 C           4.7702    1.7334    4.8875 C.3     1  UNL1        0.0030
     19 C           5.5271    3.3530    3.1093 C.ar    1  UNL1        0.1844
     20 N           6.2862    3.6221    2.0948 N.ar    1  UNL1       -0.1402
     21 N           6.3695    4.9831    1.9318 N.ar    1  UNL1       -0.1899
     22 C           7.1207    5.7776    1.0809 C.ar    1  UNL1        0.1496
     23 C           6.7912    7.1012    1.4233 C.ar    1  UNL1        0.1135
     24 N           5.8554    7.0842    2.4909 N.ar    1  UNL1       -0.2180
     25 C           5.6728    5.8042    2.7446 C.ar    1  UNL1        0.1992
     26 S           4.8067    4.8222    3.8861 S.2     1  UNL1       -0.0129
     27 C           7.3219    8.3301    0.7263 C.ar    1  UNL1        0.0038
     28 C           7.1168    9.6244    1.2244 C.ar    1  UNL1       -0.0525
     29 C           7.4385   10.7713    0.4527 C.ar    1  UNL1       -0.0611
     30 C           8.1033   10.6645   -0.7672 C.ar    1  UNL1       -0.0617
     31 C           8.4723    9.4104   -1.2053 C.ar    1  UNL1       -0.0611
     32 C           8.0215    8.2772   -0.5070 C.ar    1  UNL1       -0.0525
     33 N           7.9957    5.3041    0.1439 N.pl3   1  UNL1       -0.3244
     34 C           8.5199    3.9658    0.0849 C.3     1  UNL1        0.0220
     35 C           9.1838    3.5414    1.3879 C.3     1  UNL1       -0.0345
     36 C           9.2770    2.0437    1.2222 C.3     1  UNL1       -0.0513
     37 C           8.0537    1.6531    0.3969 C.3     1  UNL1       -0.0513
     38 C           7.5354    2.8881   -0.3262 C.3     1  UNL1       -0.0345
     39 H           2.5141   -0.4654    1.8303 H       1  UNL1        0.0284
     40 H           1.7331   -1.9122    1.8772 H       1  UNL1        0.0284
     41 H           1.5187   -0.8574    3.2629 H       1  UNL1        0.0284
     42 H          -0.3258   -2.2015    1.3783 H       1  UNL1        0.0320
     43 H          -1.5642   -1.0306    0.9623 H       1  UNL1        0.0320
     44 H          -1.8125   -2.1369    3.2771 H       1  UNL1        0.0269
     45 H          -0.3632   -1.3353    3.8124 H       1  UNL1        0.0269
     46 H          -2.7613    0.1471    2.6707 H       1  UNL1        0.0317
     47 H          -2.3940   -0.0337    4.3869 H       1  UNL1        0.0317
     48 H          -1.5644    2.1559    3.4310 H       1  UNL1        0.0814
     49 H          -0.2604    1.1637    4.1351 H       1  UNL1        0.0814
     50 H           0.9794    2.6514    0.8599 H       1  UNL1        0.0815
     51 H          -0.1393    3.4534    1.9720 H       1  UNL1        0.0815
     52 H           2.2254    3.7442    2.8608 H       1  UNL1        0.0332
     53 H           1.2368    2.7743    3.9532 H       1  UNL1        0.0332
     54 H           3.1285    1.2287    3.5725 H       1  UNL1        0.0464
     55 H           1.8105    0.9444    2.8949 H       1  UNL1        0.0464
     56 H           2.7432    1.5171    0.6077 H       1  UNL1        0.1487
     57 H           4.9127   -0.0362    3.0337 H       1  UNL1        0.0560
     58 H           6.3736    0.5966    2.4267 H       1  UNL1        0.0560
     59 H           5.4955    1.9977    5.6483 H       1  UNL1        0.0428
     60 H           3.8302    2.2618    5.0903 H       1  UNL1        0.0428
     61 H           4.5455    0.6592    4.9958 H       1  UNL1        0.0428
     62 H           6.6860    9.7765    2.2102 H       1  UNL1        0.0624
     63 H           7.1604   11.7636    0.8012 H       1  UNL1        0.0618
     64 H           8.3269   11.5404   -1.3736 H       1  UNL1        0.0618
     65 H           9.0628    9.2960   -2.1133 H       1  UNL1        0.0618
     66 H           8.2095    7.3548   -1.0354 H       1  UNL1        0.0624
     67 H           8.7527    5.9423   -0.0812 H       1  UNL1        0.1478
     68 H           9.2842    3.9739   -0.7015 H       1  UNL1        0.0498
     69 H          10.1516    4.0292    1.5340 H       1  UNL1        0.0283
     70 H           8.6139    3.7763    2.2906 H       1  UNL1        0.0283
     71 H           9.2998    1.5375    2.1933 H       1  UNL1        0.0266
     72 H          10.1874    1.7903    0.6752 H       1  UNL1        0.0266
     73 H           7.2874    1.3147    1.0672 H       1  UNL1        0.0266
     74 H           8.2552    0.8235   -0.2813 H       1  UNL1        0.0266
     75 H           6.4879    3.1034   -0.0887 H       1  UNL1        0.0283
     76 H           7.5248    2.7352   -1.4085 H       1  UNL1        0.0283
@<TRIPOS>BOND
     1     2     4    1
     2     4     5    1
     3     5     6    1
     4     6     7    1
     5     7     8    1
     6     8     9    1
     7     2     8    1
     8     8    10    1
     9    10    11    1
    10    11    12    1
    11    12    13    1
    12    13    14   am
    13    14    15    2
    14    14    16    1
    15    16    17    1
    16    17    18    1
    17    17    19    1
    18    19    20   ar
    19    20    21   ar
    20    21    22   ar
    21    22    23   ar
    22    23    24   ar
    23    24    25   ar
    24    21    25   ar
    25    25    26   ar
    26    19    26   ar
    27    23    27    1
    28    27    28   ar
    29    28    29   ar
    30    29    30   ar
    31    30    31   ar
    32    31    32   ar
    33    27    32   ar
    34    22    33    1
    35    33    34    1
    36    34    35    1
    37    35    36    1
    38    36    37    1
    39    37    38    1
    40    34    38    1
    41     1    39    1
    42     1    40    1
    43     1    41    1
    44     4    42    1
    45     4    43    1
    46     5    44    1
    47     5    45    1
    48     6    46    1
    49     6    47    1
    50     7    48    1
    51     7    49    1
    52    10    50    1
    53    10    51    1
    54    11    52    1
    55    11    53    1
    56    12    54    1
    57    12    55    1
    58    13    56    1
    59    16    57    1
    60    16    58    1
    61    18    59    1
    62    18    60    1
    63    18    61    1
    64    28    62    1
    65    29    63    1
    66    30    64    1
    67    31    65    1
    68    32    66    1
    69    33    67    1
    70    34    68    1
    71    35    69    1
    72    35    70    1
    73    36    71    1
    74    36    72    1
    75    37    73    1
    76    37    74    1
    77    38    75    1
    78    38    76    1
    79     2     3    1
    80     2     1    1
