@<TRIPOS>MOLECULE
*****
 69 73 0 0 0
SMALL
GASTEIGER

@<TRIPOS>ATOM
      1 C          10.8673   -3.8032    2.2616 C.3     1  UNL1       -0.0433
      2 N          11.5615   -2.5063    1.9728 N.4     1  UNL1        0.2309
      3 H          11.4741   -1.9912    2.8596 H       1  UNL1        0.2028
      4 C          13.0146   -2.7394    1.7553 C.3     1  UNL1       -0.0433
      5 C          11.0109   -1.6033    0.9067 C.3     1  UNL1       -0.0310
      6 C          10.9876   -2.1674   -0.5076 C.3     1  UNL1        0.0033
      7 C          10.1430   -3.4263   -0.7349 C.3     1  UNL1        0.0201
      8 N           8.7475   -3.2407   -0.3391 N.am    1  UNL1       -0.2909
      9 C           7.8133   -3.0211   -1.4112 C.3     1  UNL1        0.0913
     10 C           7.1918   -1.6741   -1.1388 C.2     1  UNL1        0.2343
     11 O           6.7710   -0.9633   -2.0662 O.2     1  UNL1       -0.2738
     12 N           6.8585   -1.4513    0.2186 N.am    1  UNL1       -0.2743
     13 C           7.6036   -1.8964    1.3680 C.3     1  UNL1        0.1072
     14 H           8.3396   -1.0971    1.4348 H       1  UNL1        0.0600
     15 C           8.1557   -3.2635    0.9202 C.2     1  UNL1        0.2369
     16 O           8.1223   -4.2594    1.6686 O.2     1  UNL1       -0.2735
     17 C           6.8592   -1.9047    2.8199 C.3     1  UNL1        0.0029
     18 C           5.8293   -0.7787    3.1781 C.2     1  UNL1        0.0152
     19 C           5.7567    0.2335    4.1297 C.ar    1  UNL1        0.0513
     20 C           4.8099    1.6132    4.1598 C.ar    1  UNL1       -0.0481
     21 C           5.3836    2.8014    4.5550 C.ar    1  UNL1       -0.0608
     22 C           6.6667    2.7328    5.2089 C.ar    1  UNL1       -0.0555
     23 C           7.4636    1.7313    4.7833 C.ar    1  UNL1        0.0098
     24 C           6.9268    0.9511    3.5817 C.ar    1  UNL1        0.2088
     25 N           6.6226    1.0825    2.3073 N.2     1  UNL1       -0.2322
     26 H           6.2284    1.9863    2.0101 H       1  UNL1        0.4463
     27 C           5.5920   -0.0848    1.9203 C.3     1  UNL1        0.1986
     28 H           4.5380    0.1293    2.1198 H       1  UNL1        0.1137
     29 C           5.6727   -0.7527    0.5069 C.3     1  UNL1        0.1211
     30 H           5.6843   -0.0001   -0.2707 H       1  UNL1        0.0622
     31 C           4.4746   -1.6776    0.2598 C.ar    1  UNL1        0.0248
     32 C           4.6143   -3.1141    0.1642 C.ar    1  UNL1       -0.0113
     33 C           3.5427   -3.9534   -0.1339 C.ar    1  UNL1        0.1206
     34 C           2.2797   -3.3855   -0.1374 C.ar    1  UNL1       -0.0165
     35 C           2.1125   -2.0064    0.0747 C.ar    1  UNL1       -0.0162
     36 C           3.1971   -1.1231    0.1509 C.ar    1  UNL1        0.1255
     37 O           2.8337    0.2020    0.1523 O.3     1  UNL1       -0.4948
     38 C           3.7545    1.2766    0.0423 C.3     1  UNL1        0.0788
     39 O           3.5944   -5.2934   -0.3995 O.3     1  UNL1       -0.4951
     40 C           4.8656   -5.9337   -0.4789 C.3     1  UNL1        0.0788
     41 H          11.3023   -4.2857    3.1329 H       1  UNL1        0.0777
     42 H          10.9846   -4.4846    1.4289 H       1  UNL1        0.0777
     43 H           9.8577   -3.5370    2.5181 H       1  UNL1        0.0777
     44 H          13.1318   -3.2218    0.7840 H       1  UNL1        0.0777
     45 H          13.4994   -1.7632    1.7850 H       1  UNL1        0.0777
     46 H          13.3650   -3.3884    2.5554 H       1  UNL1        0.0777
     47 H          10.0301   -1.3305    1.2347 H       1  UNL1        0.0815
     48 H          11.5662   -0.6571    0.9518 H       1  UNL1        0.0815
     49 H          10.6055   -1.3794   -1.1749 H       1  UNL1        0.0332
     50 H          12.0132   -2.3476   -0.8427 H       1  UNL1        0.0332
     51 H          10.1870   -3.6672   -1.8039 H       1  UNL1        0.0466
     52 H          10.5498   -4.3202   -0.2822 H       1  UNL1        0.0466
     53 H           8.2936   -3.0683   -2.3923 H       1  UNL1        0.0560
     54 H           7.0414   -3.7947   -1.3639 H       1  UNL1        0.0560
     55 H           6.2751   -2.8220    2.8569 H       1  UNL1        0.0335
     56 H           7.6480   -1.9436    3.5819 H       1  UNL1        0.0335
     57 H           3.9793    1.7446    3.4600 H       1  UNL1        0.0626
     58 H           5.0456    3.8219    4.3329 H       1  UNL1        0.0618
     59 H           6.7604    3.2473    6.1767 H       1  UNL1        0.0620
     60 H           7.8818    1.1865    5.6519 H       1  UNL1        0.0683
     61 H           5.5676   -3.6032    0.3237 H       1  UNL1        0.0659
     62 H           1.4071   -4.0130   -0.3125 H       1  UNL1        0.0655
     63 H           1.1016   -1.6164    0.1658 H       1  UNL1        0.0655
     64 H           4.3297    1.3552    0.9434 H       1  UNL1        0.0660
     65 H           4.4144    1.2260   -0.8265 H       1  UNL1        0.0660
     66 H           3.2914    2.2580    0.0907 H       1  UNL1        0.0660
     67 H           5.5127   -5.4607   -1.2238 H       1  UNL1        0.0660
     68 H           5.3448   -5.9509    0.5043 H       1  UNL1        0.0660
     69 H           4.7207   -6.9740   -0.7956 H       1  UNL1        0.0660
@<TRIPOS>BOND
     1     1     2    1
     2     2     3    1
     3     2     4    1
     4     2     5    1
     5     5     6    1
     6     6     7    1
     7     7     8    1
     8     8     9    1
     9     9    10    1
    10    10    11    2
    11    10    12   am
    12    12    13    1
    13    13    14    1
    14    13    15    1
    15     8    15   am
    16    15    16    2
    17    13    17    1
    18    17    18    1
    19    18    19    2
    20    19    20   ar
    21    20    21   ar
    22    21    22   ar
    23    22    23   ar
    24    23    24   ar
    25    19    24   ar
    26    24    25    2
    27    25    26    1
    28    25    27    1
    29    27    28    1
    30    18    27    1
    31    27    29    1
    32    12    29    1
    33    31    32   ar
    34    32    33   ar
    35    33    34   ar
    36    34    35   ar
    37    35    36   ar
    38    31    36   ar
    39    36    37    1
    40    37    38    1
    41    33    39    1
    42    39    40    1
    43     1    41    1
    44     1    42    1
    45     1    43    1
    46     4    44    1
    47     4    45    1
    48     4    46    1
    49     5    47    1
    50     5    48    1
    51     6    49    1
    52     6    50    1
    53     7    51    1
    54     7    52    1
    55     9    53    1
    56     9    54    1
    57    17    55    1
    58    17    56    1
    59    20    57    1
    60    21    58    1
    61    22    59    1
    62    23    60    1
    63    32    61    1
    64    34    62    1
    65    35    63    1
    66    38    64    1
    67    38    65    1
    68    38    66    1
    69    40    67    1
    70    40    68    1
    71    40    69    1
    72    29    31    1
    73    29    30    1
