MODEL 1
REMARK VINA RESULT:      -5.7      0.000      0.000
REMARK  7 active torsions:
REMARK  status: ('A' for Active; 'I' for Inactive)
REMARK    1  A    between atoms: N_2  and  C_5 
REMARK    2  A    between atoms: C_5  and  C_6 
REMARK    3  A    between atoms: C_6  and  C_7 
REMARK    4  A    between atoms: C_7  and  N_8 
REMARK    5  A    between atoms: C_27  and  C_28 
REMARK    6  A    between atoms: C_30  and  O_36 
REMARK    7  A    between atoms: C_33  and  O_34 
ROOT
ATOM      1  N   UNL d   1     -10.007  -7.499  56.879  0.00  0.00    -0.342 N 
ATOM      2  C   UNL d   1     -10.731  -8.692  56.528  0.00  0.00     0.228 C 
ATOM      3  C   UNL d   1     -11.865  -8.786  57.518  0.00  0.00     0.239 C 
ATOM      4  O   UNL d   1     -12.934  -9.342  57.218  0.00  0.00    -0.271 OA
ATOM      5  N   UNL d   1     -11.499  -8.482  58.852  0.00  0.00    -0.327 N 
ATOM      6  C   UNL d   1     -10.551  -7.484  59.274  0.00  0.00     0.180 C 
ATOM      7  C   UNL d   1      -9.479  -7.526  58.166  0.00  0.00     0.243 C 
ATOM      8  O   UNL d   1      -8.263  -7.514  58.434  0.00  0.00    -0.271 OA
ATOM      9  C   UNL d   1      -9.963  -7.565  60.794  0.00  0.00     0.042 C 
ATOM     10  C   UNL d   1     -10.888  -8.042  61.966  0.00  0.00     0.021 C 
ATOM     11  C   UNL d   1     -11.390  -7.467  63.130  0.00  0.00     0.058 C 
ATOM     12  C   UNL d   1     -12.679  -7.935  64.089  0.00  0.00    -0.016 C 
ATOM     13  C   UNL d   1     -13.537  -6.968  64.562  0.00  0.00    -0.003 C 
ATOM     14  C   UNL d   1     -13.107  -5.595  64.466  0.00  0.00     0.001 C 
ATOM     15  C   UNL d   1     -12.339  -5.319  63.391  0.00  0.00     0.020 C 
ATOM     16  C   UNL d   1     -12.194  -6.470  62.394  0.00  0.00    -0.006 C 
ATOM     17  N   UNL d   1     -12.886  -7.210  61.552  0.00  0.00    -0.288 NA
ATOM     18  H   UNL d   1     -13.852  -7.444  61.818  0.00  0.00     0.128 HD
ATOM     19  C   UNL d   1     -12.072  -8.572  61.307  0.00  0.00     0.092 C 
ATOM     20  C   UNL d   1     -12.080  -9.234  59.888  0.00  0.00     0.142 C 
ENDROOT
BRANCH  20  21
ATOM     21  C   UNL d   1     -11.435 -10.625  59.921  0.00  0.00     0.002 C 
ATOM     22  C   UNL d   1     -10.229 -10.935  59.185  0.00  0.00     0.048 C 
ATOM     23  C   UNL d   1      -9.680 -12.215  59.151  0.00  0.00     0.069 C 
ATOM     24  C   UNL d   1     -10.215 -13.153  60.017  0.00  0.00     0.039 C 
ATOM     25  C   UNL d   1     -11.315 -12.834  60.832  0.00  0.00     0.040 C 
ATOM     26  C   UNL d   1     -12.011 -11.625  60.709  0.00  0.00     0.076 C 
BRANCH  23  27
ATOM     27  O   UNL d   1      -8.645 -12.647  58.370  0.00  0.00    -0.356 OA
ATOM     28  C   UNL d   1      -8.642 -12.320  56.981  0.00  0.00     0.210 C 
ENDBRANCH  23  27
BRANCH  26  29
ATOM     29  O   UNL d   1     -13.174 -11.578  61.439  0.00  0.00    -0.355 OA
ATOM     30  C   UNL d   1     -13.662 -12.656  62.223  0.00  0.00     0.210 C 
ENDBRANCH  26  29
ENDBRANCH  20  21
BRANCH   1  31
ATOM     31  C   UNL d   1      -9.920  -6.475  55.840  0.00  0.00     0.128 C 
BRANCH  31  32
ATOM     32  C   UNL d   1      -8.643  -6.599  55.000  0.00  0.00     0.047 C 
BRANCH  32  33
ATOM     33  C   UNL d   1      -8.786  -7.240  53.626  0.00  0.00     0.235 C 
BRANCH  33  34
ATOM     34  N   UNL d   1      -7.990  -8.491  53.390  0.00  0.00    -0.079 N 
ATOM     35  C   UNL d   1      -8.571  -9.813  53.797  0.00  0.00     0.269 C 
ATOM     36  H   UNL d   1      -7.150  -8.414  53.980  0.00  0.00     0.278 HD
ATOM     37  C   UNL d   1      -7.519  -8.549  51.980  0.00  0.00     0.269 C 
ENDBRANCH  33  34
ENDBRANCH  32  33
ENDBRANCH  31  32
ENDBRANCH   1  31
TORSDOF 7
ENDMDL
