REMARK  7 active torsions:
REMARK  status: ('A' for Active; 'I' for Inactive)
REMARK    1  A    between atoms: N_2  and  C_5 
REMARK    2  A    between atoms: C_5  and  C_6 
REMARK    3  A    between atoms: C_6  and  C_7 
REMARK    4  A    between atoms: C_7  and  N_8 
REMARK    5  A    between atoms: C_27  and  C_28 
REMARK    6  A    between atoms: C_30  and  O_36 
REMARK    7  A    between atoms: C_33  and  O_34 
ROOT
ATOM      1  N   UNL d   1       8.748  -3.241  -0.339  0.00  0.00    -0.342 N 
ATOM      2  C   UNL d   1       7.813  -3.021  -1.411  0.00  0.00     0.228 C 
ATOM      3  C   UNL d   1       7.192  -1.674  -1.139  0.00  0.00     0.239 C 
ATOM      4  O   UNL d   1       6.771  -0.963  -2.066  0.00  0.00    -0.271 OA
ATOM      5  N   UNL d   1       6.859  -1.451   0.219  0.00  0.00    -0.327 N 
ATOM      6  C   UNL d   1       7.604  -1.896   1.368  0.00  0.00     0.180 C 
ATOM      7  C   UNL d   1       8.156  -3.264   0.920  0.00  0.00     0.243 C 
ATOM      8  O   UNL d   1       8.122  -4.259   1.669  0.00  0.00    -0.271 OA
ATOM      9  C   UNL d   1       6.859  -1.905   2.820  0.00  0.00     0.042 C 
ATOM     10  C   UNL d   1       5.829  -0.779   3.178  0.00  0.00     0.021 C 
ATOM     11  C   UNL d   1       5.757   0.234   4.130  0.00  0.00     0.058 C 
ATOM     12  C   UNL d   1       4.810   1.613   4.160  0.00  0.00    -0.016 C 
ATOM     13  C   UNL d   1       5.384   2.801   4.555  0.00  0.00    -0.003 C 
ATOM     14  C   UNL d   1       6.667   2.733   5.209  0.00  0.00     0.001 C 
ATOM     15  C   UNL d   1       7.464   1.731   4.783  0.00  0.00     0.020 C 
ATOM     16  C   UNL d   1       6.927   0.951   3.582  0.00  0.00    -0.006 C 
ATOM     17  N   UNL d   1       6.623   1.083   2.307  0.00  0.00    -0.288 NA
ATOM     18  H   UNL d   1       6.228   1.986   2.010  0.00  0.00     0.128 HD
ATOM     19  C   UNL d   1       5.592  -0.085   1.920  0.00  0.00     0.092 C 
ATOM     20  C   UNL d   1       5.673  -0.753   0.507  0.00  0.00     0.142 C 
ENDROOT
BRANCH  20  21
ATOM     21  C   UNL d   1       4.475  -1.678   0.260  0.00  0.00     0.002 C 
ATOM     22  C   UNL d   1       4.614  -3.114   0.164  0.00  0.00     0.048 C 
ATOM     23  C   UNL d   1       3.543  -3.953  -0.134  0.00  0.00     0.069 C 
ATOM     24  C   UNL d   1       2.280  -3.385  -0.137  0.00  0.00     0.039 C 
ATOM     25  C   UNL d   1       2.112  -2.006   0.075  0.00  0.00     0.040 C 
ATOM     26  C   UNL d   1       3.197  -1.123   0.151  0.00  0.00     0.076 C 
BRANCH  23  27
ATOM     27  O   UNL d   1       3.594  -5.293  -0.400  0.00  0.00    -0.356 OA
ATOM     28  C   UNL d   1       4.866  -5.934  -0.479  0.00  0.00     0.210 C 
ENDBRANCH  23  27
BRANCH  26  29
ATOM     29  O   UNL d   1       2.834   0.202   0.152  0.00  0.00    -0.355 OA
ATOM     30  C   UNL d   1       3.755   1.277   0.042  0.00  0.00     0.210 C 
ENDBRANCH  26  29
ENDBRANCH  20  21
BRANCH   1  31
ATOM     31  C   UNL d   1      10.143  -3.426  -0.735  0.00  0.00     0.128 C 
BRANCH  31  32
ATOM     32  C   UNL d   1      10.988  -2.167  -0.508  0.00  0.00     0.047 C 
BRANCH  32  33
ATOM     33  C   UNL d   1      11.011  -1.603   0.907  0.00  0.00     0.235 C 
BRANCH  33  34
ATOM     34  N   UNL d   1      11.562  -2.506   1.973  0.00  0.00    -0.079 N 
ATOM     35  C   UNL d   1      10.867  -3.803   2.262  0.00  0.00     0.269 C 
ATOM     36  H   UNL d   1      11.474  -1.991   2.860  0.00  0.00     0.278 HD
ATOM     37  C   UNL d   1      13.015  -2.739   1.755  0.00  0.00     0.269 C 
ENDBRANCH  33  34
ENDBRANCH  32  33
ENDBRANCH  31  32
ENDBRANCH   1  31
TORSDOF 7
