@<TRIPOS>MOLECULE
*****
 69 73 0 0 0
SMALL
GASTEIGER

@<TRIPOS>ATOM
      1 C          10.2948   -4.4586    3.3790 C.3     1  UNL1       -0.0433
      2 N          11.0794   -3.3406    4.0390 N.4     1  UNL1        0.2309
      3 H          10.8335   -3.4325    5.0361 H       1  UNL1        0.2028
      4 C          12.5375   -3.6331    3.8829 C.3     1  UNL1       -0.0433
      5 C          10.8260   -1.8915    3.7105 C.3     1  UNL1       -0.0310
      6 C          10.9961   -1.5377    2.2369 C.3     1  UNL1        0.0033
      7 C          10.1124   -2.2889    1.2588 C.3     1  UNL1        0.0201
      8 N           8.6864   -2.3185    1.5728 N.am    1  UNL1       -0.2909
      9 C           7.8024   -2.2165    0.4373 C.3     1  UNL1        0.0913
     10 C           7.1737   -0.8377    0.4906 C.2     1  UNL1        0.2343
     11 O           6.7282   -0.2918   -0.5341 O.2     1  UNL1       -0.2738
     12 N           6.8372   -0.4230    1.7993 N.am    1  UNL1       -0.2743
     13 C           7.6320   -0.6458    2.9888 C.3     1  UNL1        0.1072
     14 H           8.4786    0.0539    2.9233 H       1  UNL1        0.0600
     15 C           8.0706   -2.0660    2.7986 C.2     1  UNL1        0.2369
     16 O           8.0276   -2.8294    3.7754 O.2     1  UNL1       -0.2735
     17 C           6.8898   -0.5036    4.4555 C.3     1  UNL1        0.0029
     18 C           5.8951    0.6423    4.6878 C.2     1  UNL1        0.0152
     19 C           5.7939    1.7546    5.5172 C.ar    1  UNL1        0.0513
     20 C           4.8283    3.1103    5.3783 C.ar    1  UNL1       -0.0481
     21 C           5.3816    4.3535    5.5766 C.ar    1  UNL1       -0.0608
     22 C           6.6571    4.4082    6.2424 C.ar    1  UNL1       -0.0555
     23 C           7.4681    3.3590    5.9968 C.ar    1  UNL1        0.0098
     24 C           6.9646    2.4101    4.9038 C.ar    1  UNL1        0.2088
     25 N           6.6969    2.3631    3.6131 N.2     1  UNL1       -0.2322
     26 H           6.4089    3.2447    3.1732 H       1  UNL1        0.4463
     27 C           5.6803    1.1524    3.3431 C.3     1  UNL1        0.1986
     28 H           4.6368    1.2633    3.6051 H       1  UNL1        0.1137
     29 C           5.6540    0.3168    2.0008 C.3     1  UNL1        0.1211
     30 H           5.5988    0.9359    1.1063 H       1  UNL1        0.0622
     31 C           4.3912   -0.5912    1.9160 C.ar    1  UNL1        0.0248
     32 C           4.4199   -2.0145    1.6611 C.ar    1  UNL1       -0.0113
     33 C           3.2503   -2.7646    1.4552 C.ar    1  UNL1        0.1206
     34 C           2.0370   -2.1573    1.7296 C.ar    1  UNL1       -0.0165
     35 C           1.9966   -0.8201    2.1240 C.ar    1  UNL1       -0.0162
     36 C           3.1283    0.0033    2.0675 C.ar    1  UNL1        0.1255
     37 O           2.7938    1.3294    2.1897 O.3     1  UNL1       -0.4948
     38 C           3.6600    2.4233    1.9511 C.3     1  UNL1        0.0788
     39 O           3.1460   -4.0585    1.0241 O.3     1  UNL1       -0.4951
     40 C           4.3234   -4.7600    0.6488 C.3     1  UNL1        0.0788
     41 H          10.4942   -5.3890    3.9056 H       1  UNL1        0.0777
     42 H          10.6310   -4.5811    2.3570 H       1  UNL1        0.0777
     43 H           9.2314   -4.3100    3.4153 H       1  UNL1        0.0777
     44 H          12.7895   -3.4962    2.8279 H       1  UNL1        0.0777
     45 H          13.0871   -2.9326    4.5125 H       1  UNL1        0.0777
     46 H          12.7065   -4.6654    4.1818 H       1  UNL1        0.0777
     47 H           9.8639   -1.6018    4.1228 H       1  UNL1        0.0815
     48 H          11.5122   -1.2870    4.3179 H       1  UNL1        0.0815
     49 H          10.8100   -0.4639    2.1025 H       1  UNL1        0.0332
     50 H          12.0428   -1.6786    1.9436 H       1  UNL1        0.0332
     51 H          10.2575   -1.8417    0.2652 H       1  UNL1        0.0466
     52 H          10.4249   -3.3138    1.0755 H       1  UNL1        0.0466
     53 H           8.3157   -2.4119   -0.5095 H       1  UNL1        0.0560
     54 H           7.0270   -2.9764    0.5605 H       1  UNL1        0.0560
     55 H           6.2671   -1.3932    4.5811 H       1  UNL1        0.0335
     56 H           7.6665   -0.4944    5.2271 H       1  UNL1        0.0335
     57 H           3.9487    3.1361    4.7375 H       1  UNL1        0.0626
     58 H           5.0032    5.3218    5.2258 H       1  UNL1        0.0618
     59 H           6.7166    5.0643    7.1231 H       1  UNL1        0.0620
     60 H           7.8586    2.9531    6.9520 H       1  UNL1        0.0683
     61 H           5.3457   -2.5701    1.6166 H       1  UNL1        0.0659
     62 H           1.1059   -2.7114    1.6174 H       1  UNL1        0.0655
     63 H           1.0454   -0.3948    2.4341 H       1  UNL1        0.0655
     64 H           4.1718    2.6604    2.8635 H       1  UNL1        0.0660
     65 H           4.3901    2.2985    1.1565 H       1  UNL1        0.0660
     66 H           3.1583    3.3758    1.8495 H       1  UNL1        0.0660
     67 H           4.8883   -4.2268   -0.1226 H       1  UNL1        0.0660
     68 H           4.9398   -4.9490    1.5313 H       1  UNL1        0.0660
     69 H           4.0360   -5.7331    0.2305 H       1  UNL1        0.0660
@<TRIPOS>BOND
     1     1     2    1
     2     2     3    1
     3     2     4    1
     4     2     5    1
     5     5     6    1
     6     6     7    1
     7     7     8    1
     8     8     9    1
     9     9    10    1
    10    10    11    2
    11    10    12   am
    12    12    13    1
    13    13    14    1
    14    13    15    1
    15     8    15   am
    16    15    16    2
    17    13    17    1
    18    17    18    1
    19    18    19    2
    20    19    20   ar
    21    20    21   ar
    22    21    22   ar
    23    22    23   ar
    24    23    24   ar
    25    19    24   ar
    26    24    25    2
    27    25    26    1
    28    25    27    1
    29    27    28    1
    30    18    27    1
    31    27    29    1
    32    12    29    1
    33    31    32   ar
    34    32    33   ar
    35    33    34   ar
    36    34    35   ar
    37    35    36   ar
    38    31    36   ar
    39    36    37    1
    40    37    38    1
    41    33    39    1
    42    39    40    1
    43     1    41    1
    44     1    42    1
    45     1    43    1
    46     4    44    1
    47     4    45    1
    48     4    46    1
    49     5    47    1
    50     5    48    1
    51     6    49    1
    52     6    50    1
    53     7    51    1
    54     7    52    1
    55     9    53    1
    56     9    54    1
    57    17    55    1
    58    17    56    1
    59    20    57    1
    60    21    58    1
    61    22    59    1
    62    23    60    1
    63    32    61    1
    64    34    62    1
    65    35    63    1
    66    38    64    1
    67    38    65    1
    68    38    66    1
    69    40    67    1
    70    40    68    1
    71    40    69    1
    72    29    31    1
    73    29    30    1
