MODEL 1
REMARK VINA RESULT:      -9.4      0.000      0.000
REMARK  2 active torsions:
REMARK  status: ('A' for Active; 'I' for Inactive)
REMARK    1  A    between atoms: C_6  and  C_7 
REMARK       I    between atoms: C_7  and  N_9 
REMARK    2  A    between atoms: C_19  and  C_22 
ROOT
ATOM      1  C   UNL d   1      17.126  34.398  92.525  0.00  0.00     0.256 C 
ATOM      2  O   UNL d   1      16.828  33.258  92.786  0.00  0.00    -0.267 OA
ATOM      3  N   UNL d   1      16.799  35.589  93.591  0.00  0.00    -0.321 N 
ATOM      4  H   UNL d   1      16.990  36.540  93.294  0.00  0.00     0.169 HD
ATOM      5  C   UNL d   1      16.282  35.371  94.759  0.00  0.00     0.064 C 
ATOM      6  C   UNL d   1      15.861  33.989  95.154  0.00  0.00     0.032 C 
ATOM      7  C   UNL d   1      15.187  33.753  96.272  0.00  0.00     0.005 C 
ATOM      8  C   UNL d   1      14.767  34.798  97.121  0.00  0.00     0.031 C 
ATOM      9  C   UNL d   1      15.014  36.078  96.874  0.00  0.00     0.059 C 
ATOM     10  C   UNL d   1      15.929  36.490  95.795  0.00  0.00     0.083 C 
ATOM     11  N   UNL d   1      16.308  37.761  95.889  0.00  0.00    -0.358 N 
ATOM     12  HN  UNL d   1      17.097  38.247  95.464  1.00  0.00     0.162 HD
ATOM     13  C   UNL d   1      15.156  38.308  96.870  0.00  0.00     0.292 C 
ATOM     14  N   UNL d   1      14.570  37.141  97.509  0.00  0.00    -0.360 N 
ATOM     15  HN  UNL d   1      13.930  37.147  98.303  1.00  0.00     0.162 HD
ENDROOT
BRANCH   1  16
ATOM     16  C   UNL d   1      17.763  34.654  91.220  0.00  0.00     0.032 A 
ATOM     17  C   UNL d   1      19.018  35.315  91.204  0.00  0.00     0.018 A 
ATOM     18  C   UNL d   1      19.685  35.529  89.997  0.00  0.00     0.025 A 
ATOM     19  C   UNL d   1      19.162  34.976  88.834  0.00  0.00     0.034 A 
ATOM     20  C   UNL d   1      17.920  34.337  88.850  0.00  0.00     0.025 A 
ATOM     21 CL   UNL d   1      20.055  35.046  87.370  0.00  0.00    -0.084 Cl
ATOM     22  C   UNL d   1      17.189  34.235  90.031  0.00  0.00     0.018 A 
ENDBRANCH   1  16
BRANCH  13  23
ATOM     23  C   UNL d   1      15.098  39.477  97.949  0.00  0.00     0.425 C 
ATOM     24  F   UNL d   1      14.966  38.873  99.189  0.00  0.00    -0.167 F 
ATOM     25  F   UNL d   1      16.200  40.255  98.054  0.00  0.00    -0.167 F 
ATOM     26  F   UNL d   1      14.019  40.287  97.859  0.00  0.00    -0.167 F 
ENDBRANCH  13  23
TORSDOF 2
ENDMDL
