MODEL 1
REMARK VINA RESULT:      -7.4      0.000      0.000
REMARK  9 active torsions:
REMARK  status: ('A' for Active; 'I' for Inactive)
REMARK    1  A    between atoms: C_9  and  C_5 
REMARK    2  A    between atoms: C_9  and  C_10 
REMARK    3  A    between atoms: C_9  and  N_16 
REMARK    4  A    between atoms: C_10  and  C_11 
REMARK    5  A    between atoms: N_16  and  C_17 
REMARK    6  A    between atoms: C_17  and  C_18 
REMARK    7  A    between atoms: N_20  and  C_27 
REMARK    8  A    between atoms: C_27  and  C_28 
REMARK    9  A    between atoms: C_28  and  N_29 
ROOT
ATOM      1  N   UNL d   1       2.013  26.846  30.402  0.00  0.00     0.098 N 
ATOM      2  H   UNL d   1       1.533  26.640  31.276  0.00  0.00     0.317 HD
ENDROOT
BRANCH   1   3
ATOM      3  C   UNL d   1       1.373  28.034  29.767  0.00  0.00     0.274 C 
BRANCH   3   4
ATOM      4  C   UNL d   1       0.355  27.609  28.704  0.00  0.00     0.081 C 
BRANCH   4   5
ATOM      5  C   UNL d   1       0.943  27.570  27.343  0.00  0.00    -0.049 A 
ATOM      6  C   UNL d   1       1.567  28.674  26.690  0.00  0.00     0.015 A 
ATOM      7  C   UNL d   1       2.040  28.327  25.446  0.00  0.00     0.050 A 
ATOM      8  S   UNL d   1       1.750  26.682  25.076  0.00  0.00    -0.113 SA
ATOM      9  C   UNL d   1       0.984  26.425  26.574  0.00  0.00     0.056 A 
ENDBRANCH   4   5
ENDBRANCH   3   4
BRANCH   3  10
ATOM     10  C   UNL d   1       0.530  28.967  30.645  0.00  0.00     0.042 A 
ATOM     11  C   UNL d   1       0.356  30.294  30.242  0.00  0.00     0.028 A 
ATOM     12  C   UNL d   1      -0.215  31.191  31.139  0.00  0.00     0.010 A 
ATOM     13  C   UNL d   1      -0.671  30.741  32.385  0.00  0.00    -0.047 A 
ATOM     14  C   UNL d   1      -1.169  31.700  33.426  0.00  0.00     0.049 C 
ATOM     15  C   UNL d   1      -0.520  29.387  32.669  0.00  0.00     0.095 A 
ATOM     16  N   UNL d   1       0.054  28.497  31.826  0.00  0.00    -0.367 N 
ATOM     17  HN  UNL d   1       0.127  27.510  32.071  1.00  0.00     0.165 HD
ENDBRANCH   3  10
ENDBRANCH   1   3
BRANCH   1  18
ATOM     18  C   UNL d   1       3.447  26.896  30.636  0.00  0.00     0.311 C 
BRANCH  18  19
ATOM     19  C   UNL d   1       4.150  26.857  29.330  0.00  0.00    -0.002 C 
ATOM     20  C   UNL d   1       4.230  25.716  28.562  0.00  0.00     0.101 C 
ATOM     21  N   UNL d   1       4.973  25.905  27.442  0.00  0.00    -0.354 N 
ATOM     22  C   UNL d   1       5.135  27.266  27.305  0.00  0.00     0.045 A 
ATOM     23  C   UNL d   1       4.668  27.866  28.495  0.00  0.00     0.000 A 
ATOM     24  C   UNL d   1       5.609  28.022  26.237  0.00  0.00     0.030 A 
ATOM     25  C   UNL d   1       4.707  29.262  28.631  0.00  0.00     0.014 A 
ATOM     26  C   UNL d   1       5.203  30.016  27.574  0.00  0.00     0.001 A 
ATOM     27  C   UNL d   1       5.640  29.407  26.399  0.00  0.00     0.002 A 
BRANCH  21  28
ATOM     28  C   UNL d   1       5.415  24.851  26.536  0.00  0.00     0.156 C 
BRANCH  28  29
ATOM     29  C   UNL d   1       6.928  24.588  26.301  0.00  0.00     0.254 C 
BRANCH  29  30
ATOM     30  N   UNL d   1       7.368  24.315  24.855  0.00  0.00    -0.077 N 
ATOM     31  H   UNL d   1       8.392  24.176  24.851  0.00  0.00     0.279 HD
ATOM     32  C   UNL d   1       6.732  23.115  24.225  0.00  0.00     0.269 C 
ATOM     33  C   UNL d   1       6.975  25.418  23.928  0.00  0.00     0.269 C 
ENDBRANCH  29  30
ENDBRANCH  28  29
ENDBRANCH  21  28
ENDBRANCH  18  19
ENDBRANCH   1  18
TORSDOF 9
ENDMDL
