@<TRIPOS>MOLECULE
*****
 61 64 0 0 0
SMALL
GASTEIGER

@<TRIPOS>ATOM
      1 C          -6.3402   -6.1844   -1.2550 C.3     1  UNL1       -0.0383
      2 C          -4.8850   -5.9198   -1.5058 C.ar    1  UNL1       -0.0323
      3 C          -4.3070   -4.6797   -1.2016 C.ar    1  UNL1       -0.0557
      4 C          -2.9333   -4.5036   -1.3278 C.ar    1  UNL1       -0.0386
      5 C          -2.1489   -5.6038   -1.6868 C.ar    1  UNL1        0.0585
      6 N          -2.6899   -6.8002   -2.0326 N.ar    1  UNL1       -0.2580
      7 C          -4.0323   -6.9362   -1.9255 C.ar    1  UNL1        0.0308
      8 C          -0.6232   -5.4846   -1.5908 C.3     1  UNL1        0.0544
      9 H          -0.3584   -4.4937   -1.1938 H       1  UNL1        0.0529
     10 C          -0.2162   -5.5614   -3.0659 C.3     1  UNL1       -0.0061
     11 C           1.2260   -5.2770   -3.2687 C.ar    1  UNL1       -0.0385
     12 C           1.8021   -3.9729   -3.3290 C.ar    1  UNL1       -0.0515
     13 C           3.1655   -4.0279   -3.4992 C.ar    1  UNL1       -0.0241
     14 S           3.7483   -5.6346   -3.5684 S.2     1  UNL1       -0.1048
     15 C           2.1802   -6.2677   -3.3767 C.ar    1  UNL1       -0.0211
     16 N           0.1192   -6.4914   -0.7785 N.3     1  UNL1       -0.3037
     17 C          -0.0387   -6.4406    0.6662 C.3     1  UNL1        0.0238
     18 C          -1.4248   -6.8412    1.0126 C.ar    1  UNL1       -0.0084
     19 C          -2.4696   -5.9430    1.0583 C.ar    1  UNL1        0.0103
     20 N          -3.6284   -6.5275    1.4571 N.ar    1  UNL1       -0.3412
     21 C          -3.4266   -7.8873    1.3829 C.ar    1  UNL1        0.0495
     22 C          -2.0493   -8.0958    1.1527 C.ar    1  UNL1        0.0042
     23 C          -1.5560   -9.4028    1.0254 C.ar    1  UNL1       -0.0523
     24 C          -2.4527  -10.4613    1.1240 C.ar    1  UNL1       -0.0611
     25 C          -3.8129  -10.2343    1.3305 C.ar    1  UNL1       -0.0598
     26 C          -4.3294   -8.9448    1.4579 C.ar    1  UNL1       -0.0376
     27 C          -4.8549   -5.8165    1.8009 C.3     1  UNL1        0.0633
     28 C          -4.8806   -4.7978    2.9738 C.3     1  UNL1       -0.0140
     29 N          -3.8708   -3.6416    2.9110 N.4     1  UNL1        0.2322
     30 H          -3.9836   -3.1650    2.0005 H       1  UNL1        0.2028
     31 C          -4.0241   -2.6203    3.9950 C.3     1  UNL1       -0.0433
     32 C          -2.4648   -4.1098    3.0988 C.3     1  UNL1       -0.0433
     33 H          -6.5044   -6.7208   -0.3116 H       1  UNL1        0.0278
     34 H          -6.7663   -6.7798   -2.0638 H       1  UNL1        0.0278
     35 H          -6.8907   -5.2396   -1.1955 H       1  UNL1        0.0278
     36 H          -4.8905   -3.8955   -0.7248 H       1  UNL1        0.0621
     37 H          -2.4596   -3.6029   -0.9435 H       1  UNL1        0.0636
     38 H          -4.4013   -7.9378   -2.1344 H       1  UNL1        0.0832
     39 H          -0.4606   -6.5548   -3.4675 H       1  UNL1        0.0332
     40 H          -0.8098   -4.8432   -3.6494 H       1  UNL1        0.0332
     41 H           1.2465   -3.0458   -3.2465 H       1  UNL1        0.0626
     42 H           3.8548   -3.2018   -3.5829 H       1  UNL1        0.0693
     43 H           2.0090   -7.3360   -3.3302 H       1  UNL1        0.0696
     44 H          -0.1146   -7.4239   -1.1133 H       1  UNL1        0.1229
     45 H           0.6913   -7.0921    1.1674 H       1  UNL1        0.0474
     46 H           0.1769   -5.4301    1.0456 H       1  UNL1        0.0474
     47 H          -2.3744   -4.8972    0.8725 H       1  UNL1        0.0812
     48 H          -0.5047   -9.5714    0.8135 H       1  UNL1        0.0624
     49 H          -2.0786  -11.4749    1.0163 H       1  UNL1        0.0618
     50 H          -4.4925  -11.0790    1.3836 H       1  UNL1        0.0618
     51 H          -5.3954   -8.7842    1.5737 H       1  UNL1        0.0638
     52 H          -5.2145   -5.2765    0.9353 H       1  UNL1        0.0545
     53 H          -5.6232   -6.5727    1.9925 H       1  UNL1        0.0545
     54 H          -5.8710   -4.3193    2.9738 H       1  UNL1        0.0832
     55 H          -4.7260   -5.3065    3.9247 H       1  UNL1        0.0832
     56 H          -3.8357   -3.1374    4.9408 H       1  UNL1        0.0777
     57 H          -3.2515   -1.8607    3.8228 H       1  UNL1        0.0777
     58 H          -5.0189   -2.1865    3.9611 H       1  UNL1        0.0777
     59 H          -2.1882   -4.2301    4.1415 H       1  UNL1        0.0777
     60 H          -2.4720   -5.1349    2.8605 H       1  UNL1        0.0777
     61 H          -1.7930   -3.4971    2.4903 H       1  UNL1        0.0777
@<TRIPOS>BOND
     1     1     2    1
     2     2     3   ar
     3     3     4   ar
     4     4     5   ar
     5     5     6   ar
     6     6     7   ar
     7     2     7   ar
     8     8    10    1
     9    10    11    1
    10    11    12   ar
    11    12    13   ar
    12    13    14   ar
    13    14    15   ar
    14    11    15   ar
    15     8    16    1
    16    16    17    1
    17    17    18    1
    18    18    19   ar
    19    19    20   ar
    20    20    21   ar
    21    21    22   ar
    22    18    22   ar
    23    22    23   ar
    24    23    24   ar
    25    24    25   ar
    26    25    26   ar
    27    21    26   ar
    28    20    27    1
    29    27    28    1
    30    28    29    1
    31    29    30    1
    32    29    31    1
    33    29    32    1
    34     1    33    1
    35     1    34    1
    36     1    35    1
    37     3    36    1
    38     4    37    1
    39     7    38    1
    40    10    39    1
    41    10    40    1
    42    12    41    1
    43    13    42    1
    44    15    43    1
    45    16    44    1
    46    17    45    1
    47    17    46    1
    48    19    47    1
    49    23    48    1
    50    24    49    1
    51    25    50    1
    52    26    51    1
    53    27    52    1
    54    27    53    1
    55    28    54    1
    56    28    55    1
    57    31    56    1
    58    31    57    1
    59    31    58    1
    60    32    59    1
    61    32    60    1
    62    32    61    1
    63     8     9    1
    64     8     5    1
