@<TRIPOS>MOLECULE
*****
 40 41 0 0 0
SMALL
GASTEIGER

@<TRIPOS>ATOM
      1 C           0.8790   -0.0650   -0.0684 C.3     1  UNL1       -0.0613
      2 C           0.4031    0.5697    1.2197 C.3     1  UNL1       -0.0305
      3 C           0.9490    1.9534    1.2960 C.ar    1  UNL1       -0.0459
      4 C           0.0528    3.0057    1.5092 C.ar    1  UNL1       -0.0585
      5 C           0.5917    4.2136    1.8183 C.ar    1  UNL1       -0.0597
      6 C           1.9783    4.3010    1.8177 C.ar    1  UNL1       -0.0404
      7 C           2.8059    3.4473    1.1554 C.ar    1  UNL1        0.0350
      8 N           4.0401    3.8951    0.6667 N.am    1  UNL1       -0.2695
      9 C           4.4096    5.1148    0.1666 C.2     1  UNL1        0.3039
     10 O           5.5649    5.2960   -0.1717 O.2     1  UNL1       -0.2525
     11 N           3.5380    6.1358   -0.0691 N.am    1  UNL1       -0.2987
     12 C           2.1845    6.5657    0.3702 C.3     1  UNL1        0.0199
     13 C           2.0717    7.1759    1.8499 C.3     1  UNL1        0.0213
     14 C           2.2384    8.6467    1.9132 C.ar    1  UNL1        0.1152
     15 N           1.5009    9.5005    2.5933 N.ar    1  UNL1       -0.2404
     16 C           1.9459   10.7390    2.2049 C.ar    1  UNL1        0.0459
     17 C           2.9747   10.6249    1.3028 C.ar    1  UNL1        0.0295
     18 N           3.2582    9.2977    1.2797 N.ar    1  UNL1       -0.2778
     19 C           4.3531    8.6616    0.5912 C.3     1  UNL1        0.3209
     20 F           4.0273    8.5015   -0.7216 F       1  UNL1       -0.1846
     21 F           5.5097    9.3550    0.6340 F       1  UNL1       -0.1846
     22 C           2.3456    2.1704    1.1379 C.ar    1  UNL1       -0.0373
     23 H           0.5388    0.5207   -0.9308 H       1  UNL1        0.0233
     24 H           0.5036   -1.0825   -0.1433 H       1  UNL1        0.0233
     25 H           1.9720   -0.1061   -0.1207 H       1  UNL1        0.0233
     26 H          -0.6928    0.5956    1.2440 H       1  UNL1        0.0311
     27 H           0.7429    0.0284    2.1083 H       1  UNL1        0.0311
     28 H          -1.0257    2.8801    1.5344 H       1  UNL1        0.0620
     29 H          -0.0342    5.0748    2.0338 H       1  UNL1        0.0618
     30 H           2.5063    5.1065    2.2541 H       1  UNL1        0.0636
     31 H           4.7412    3.1981    0.4334 H       1  UNL1        0.1564
     32 H           3.9662    6.7547   -0.7592 H       1  UNL1        0.1502
     33 H           1.7680    7.2904   -0.3349 H       1  UNL1        0.0467
     34 H           1.5707    5.6994    0.1501 H       1  UNL1        0.0467
     35 H           1.0837    6.9459    2.2753 H       1  UNL1        0.0358
     36 H           2.8116    6.8021    2.5787 H       1  UNL1        0.0358
     37 H           1.4851   11.6464    2.5675 H       1  UNL1        0.0845
     38 H           3.5443   11.3282    0.7172 H       1  UNL1        0.0826
     39 H           4.5375    7.7104    1.0898 H       1  UNL1        0.1280
     40 H           3.0361    1.3479    1.0001 H       1  UNL1        0.0639
@<TRIPOS>BOND
     1     1     2    1
     2     2     3    1
     3     3     4   ar
     4     4     5   ar
     5     5     6   ar
     6     6     7   ar
     7     7     8    1
     8     8     9   am
     9     9    10    2
    10     9    11   am
    11    11    12    1
    12    12    13    1
    13    13    14    1
    14    14    15   ar
    15    15    16   ar
    16    16    17   ar
    17    17    18   ar
    18    14    18   ar
    19    18    19    1
    20    19    20    1
    21    19    21    1
    22     7    22   ar
    23     3    22   ar
    24     1    23    1
    25     1    24    1
    26     1    25    1
    27     2    26    1
    28     2    27    1
    29     4    28    1
    30     5    29    1
    31     6    30    1
    32     8    31    1
    33    11    32    1
    34    12    33    1
    35    12    34    1
    36    13    35    1
    37    13    36    1
    38    16    37    1
    39    17    38    1
    40    19    39    1
    41    22    40    1
