REMARK  7 active torsions:
REMARK  status: ('A' for Active; 'I' for Inactive)
REMARK    1  A    between atoms: C4_4  and  C7_7 
REMARK    2  A    between atoms: C8_8  and  C16_18 
REMARK    3  A    between atoms: C12_12  and  O2_17 
REMARK    4  A    between atoms: C19_21  and  O3_24 
REMARK    5  A    between atoms: O3_24  and  C22_25 
REMARK    6  A    between atoms: C22_25  and  C23_26 
REMARK    7  A    between atoms: C23_26  and  N1_27 
ROOT
ATOM      1  C7  <0> d           3.711  -0.707  -0.038  0.00  0.00     0.167 C 
ATOM      2  C8  <0> d           4.079  -1.069  -1.478  0.00  0.00     0.085 C 
ATOM      3  C9  <0> d           5.240  -2.030  -1.481  0.00  0.00    -0.038 A 
ATOM      4  C10 <0> d           5.957  -2.204  -2.655  0.00  0.00     0.011 A 
ATOM      5  C11 <0> d           7.023  -3.078  -2.698  0.00  0.00     0.037 A 
ATOM      6  C12 <0> d           7.380  -3.787  -1.560  0.00  0.00     0.066 A 
ATOM      7  C13 <0> d           6.665  -3.610  -0.387  0.00  0.00     0.046 A 
ATOM      8  C14 <0> d           5.596  -2.730  -0.346  0.00  0.00    -0.025 A 
ATOM      9  C15 <0> d           4.851  -2.556   0.951  0.00  0.00     0.207 C 
ATOM     10  O1  <0> d           3.597  -1.915   0.724  0.00  0.00    -0.376 OA
ENDROOT
BRANCH   2  11
ATOM     11  C16 <0> d           2.894  -1.715  -2.150  0.00  0.00    -0.047 A 
ATOM     12  C21 <0> d           2.343  -1.139  -3.279  0.00  0.00     0.011 A 
ATOM     13  C20 <0> d           1.261  -1.731  -3.900  0.00  0.00     0.037 A 
ATOM     14  C19 <0> d           0.720  -2.900  -3.384  0.00  0.00     0.068 A 
ATOM     15  C18 <0> d           1.272  -3.473  -2.247  0.00  0.00     0.037 A 
ATOM     16  C17 <0> d           2.357  -2.879  -1.633  0.00  0.00     0.011 A 
BRANCH  14  17
ATOM     17  O3  <0> d          -0.347  -3.482  -3.990  0.00  0.00    -0.350 OA
BRANCH  17  18
ATOM     18  C22 <0> d          -0.863  -2.837  -5.156  0.00  0.00     0.203 C 
BRANCH  18  19
ATOM     19  C23 <0> d          -2.054  -3.632  -5.695  0.00  0.00     0.261 C 
BRANCH  19  20
ATOM     20  N1  <0> d          -3.148  -3.599  -4.716  0.00  0.00    -0.069 N 
ATOM     21  C27 <0> d          -4.262  -4.462  -5.167  0.00  0.00     0.235 C 
ATOM     22  C26 <0> d          -5.570  -3.774  -4.733  0.00  0.00     0.029 C 
ATOM     23  C25 <0> d          -5.128  -2.464  -4.043  0.00  0.00     0.029 C 
ATOM     24  C24 <0> d          -3.711  -2.228  -4.623  0.00  0.00     0.235 C 
ATOM     25  H30 <0> d          -2.817  -3.902  -3.813  0.00  0.00     0.280 HD
ENDBRANCH  19  20
ENDBRANCH  18  19
ENDBRANCH  17  18
ENDBRANCH  14  17
ENDBRANCH   2  11
BRANCH   1  26
ATOM     26  C4  <0> d           2.396   0.029  -0.020  0.00  0.00    -0.028 A 
ATOM     27  C3  <0> d           2.377   1.411  -0.013  0.00  0.00     0.010 A 
ATOM     28  C2  <0> d           1.171   2.086   0.002  0.00  0.00     0.001 A 
ATOM     29  C1  <0> d          -0.017   1.378   0.010  0.00  0.00     0.000 A 
ATOM     30  C6  <0> d           0.002  -0.004   0.002  0.00  0.00     0.001 A 
ATOM     31  C5  <0> d           1.208  -0.679  -0.012  0.00  0.00     0.010 A 
ENDBRANCH   1  26
BRANCH   6  32
ATOM     32  O2  <0> d           8.428  -4.652  -1.596  0.00  0.00    -0.361 OA
ATOM     33  H13 <0> d           9.278  -4.249  -1.371  0.00  0.00     0.217 HD
ENDBRANCH   6  32
TORSDOF 7
