@<TRIPOS>MOLECULE
*****
 33 35 0 0 0
SMALL
GASTEIGER

@<TRIPOS>ATOM
      1 N           1.1187   -0.0427    0.0248 N.1     1  UNL1       -0.1907
      2 C           2.2845   -0.0633    0.0340 C.1     1  UNL1        0.1042
      3 C           3.7024   -0.1401    0.0524 C.ar    1  UNL1        0.1105
      4 C           4.6255    0.9115    0.0655 C.ar    1  UNL1        0.0687
      5 N           5.8838    0.4657    0.1362 N.ar    1  UNL1       -0.1761
      6 N           5.7740   -0.9128    0.0761 N.ar    1  UNL1       -0.2422
      7 C           7.0536   -1.6931   -0.0865 C.3     1  UNL1        0.0831
      8 C           7.8449   -1.0058   -1.2336 C.3     1  UNL1       -0.0231
      9 C           7.0190   -0.9111   -2.5361 C.3     1  UNL1       -0.0164
     10 C           6.7519   -2.2692   -3.1706 C.3     1  UNL1        0.0897
     11 O           5.8651   -3.0711   -2.3831 O.3     1  UNL1       -0.4916
     12 C           6.5597   -3.8232   -1.4773 C.ar    1  UNL1        0.1258
     13 C           6.6627   -5.2039   -1.7357 C.ar    1  UNL1       -0.0182
     14 C           7.3957   -6.0312   -0.8884 C.ar    1  UNL1       -0.0399
     15 C           7.9949   -5.4714    0.2328 C.ar    1  UNL1        0.0415
     16 CL          8.9356   -6.4895    1.2624 Cl      1  UNL1       -0.0835
     17 C           7.8458   -4.0947    0.5185 C.ar    1  UNL1       -0.0347
     18 C           7.0935   -3.2284   -0.3241 C.ar    1  UNL1        0.0200
     19 C           4.4535   -1.2986    0.0880 C.ar    1  UNL1        0.1326
     20 N           4.0516   -2.5787    0.1346 N.pl3   1  UNL1       -0.3423
     21 H           4.4326    1.9811    0.0436 H       1  UNL1        0.0862
     22 H           7.5166   -1.5357    0.8987 H       1  UNL1        0.0596
     23 H           8.7922   -1.5219   -1.4330 H       1  UNL1        0.0290
     24 H           8.1237    0.0166   -0.9415 H       1  UNL1        0.0290
     25 H           6.0561   -0.4213   -2.3520 H       1  UNL1        0.0299
     26 H           7.5437   -0.2704   -3.2513 H       1  UNL1        0.0299
     27 H           6.2453   -2.1058   -4.1274 H       1  UNL1        0.0696
     28 H           7.6907   -2.7925   -3.3875 H       1  UNL1        0.0696
     29 H           6.1903   -5.6345   -2.6160 H       1  UNL1        0.0655
     30 H           7.5044   -7.0920   -1.1136 H       1  UNL1        0.0633
     31 H           8.3601   -3.7114    1.3985 H       1  UNL1        0.0637
     32 H           4.6878   -3.3590    0.0187 H       1  UNL1        0.1437
     33 H           3.0778   -2.8338   -0.0045 H       1  UNL1        0.1437
@<TRIPOS>BOND
     1     1     2    3
     2     2     3    1
     3     3     4   ar
     4     4     5   ar
     5     5     6   ar
     6     6     7    1
     7     7     8    1
     8     8     9    1
     9     9    10    1
    10    10    11    1
    11    11    12    1
    12    12    13   ar
    13    13    14   ar
    14    14    15   ar
    15    15    16    1
    16    15    17   ar
    17    17    18   ar
    18    12    18   ar
    19     7    18    1
    20     6    19   ar
    21     3    19   ar
    22    19    20    1
    23     4    21    1
    24     7    22    1
    25     8    23    1
    26     8    24    1
    27     9    25    1
    28     9    26    1
    29    10    27    1
    30    10    28    1
    31    13    29    1
    32    14    30    1
    33    17    31    1
    34    20    32    1
    35    20    33    1
