REMARK  9 active torsions:
REMARK  status: ('A' for Active; 'I' for Inactive)
REMARK    1  A    between atoms: C_9  and  C_5 
REMARK    2  A    between atoms: C_9  and  C_10 
REMARK    3  A    between atoms: C_9  and  N_16 
REMARK    4  A    between atoms: C_10  and  C_11 
REMARK    5  A    between atoms: N_16  and  C_17 
REMARK    6  A    between atoms: C_17  and  C_18 
REMARK    7  A    between atoms: N_20  and  C_27 
REMARK    8  A    between atoms: C_27  and  C_28 
REMARK    9  A    between atoms: C_28  and  N_29 
ROOT
ATOM      1  N   UNL d   1       0.119  -6.491  -0.778  0.00  0.00     0.098 N 
ATOM      2  H   UNL d   1      -0.115  -7.424  -1.113  0.00  0.00     0.317 HD
ENDROOT
BRANCH   1   3
ATOM      3  C   UNL d   1      -0.623  -5.485  -1.591  0.00  0.00     0.274 C 
BRANCH   3   4
ATOM      4  C   UNL d   1      -0.216  -5.561  -3.066  0.00  0.00     0.081 C 
BRANCH   4   5
ATOM      5  C   UNL d   1       1.226  -5.277  -3.269  0.00  0.00    -0.049 A 
ATOM      6  C   UNL d   1       1.802  -3.973  -3.329  0.00  0.00     0.015 A 
ATOM      7  C   UNL d   1       3.166  -4.028  -3.499  0.00  0.00     0.050 A 
ATOM      8  S   UNL d   1       3.748  -5.635  -3.568  0.00  0.00    -0.113 SA
ATOM      9  C   UNL d   1       2.180  -6.268  -3.377  0.00  0.00     0.056 A 
ENDBRANCH   4   5
ENDBRANCH   3   4
BRANCH   3  10
ATOM     10  C   UNL d   1      -2.149  -5.604  -1.687  0.00  0.00     0.042 A 
ATOM     11  C   UNL d   1      -2.933  -4.504  -1.328  0.00  0.00     0.028 A 
ATOM     12  C   UNL d   1      -4.307  -4.680  -1.202  0.00  0.00     0.010 A 
ATOM     13  C   UNL d   1      -4.885  -5.920  -1.506  0.00  0.00    -0.047 A 
ATOM     14  C   UNL d   1      -6.340  -6.184  -1.255  0.00  0.00     0.049 C 
ATOM     15  C   UNL d   1      -4.032  -6.936  -1.925  0.00  0.00     0.095 A 
ATOM     16  N   UNL d   1      -2.690  -6.800  -2.033  0.00  0.00    -0.367 N 
ATOM     17  HN  UNL d   1      -2.106  -7.569  -2.361  1.00  0.00     0.165 HD
ENDBRANCH   3  10
ENDBRANCH   1   3
BRANCH   1  18
ATOM     18  C   UNL d   1      -0.039  -6.441   0.666  0.00  0.00     0.311 C 
BRANCH  18  19
ATOM     19  C   UNL d   1      -1.425  -6.841   1.013  0.00  0.00    -0.002 C 
ATOM     20  C   UNL d   1      -2.470  -5.943   1.058  0.00  0.00     0.101 C 
ATOM     21  N   UNL d   1      -3.628  -6.527   1.457  0.00  0.00    -0.354 N 
ATOM     22  C   UNL d   1      -3.427  -7.887   1.383  0.00  0.00     0.045 A 
ATOM     23  C   UNL d   1      -2.049  -8.096   1.153  0.00  0.00     0.000 A 
ATOM     24  C   UNL d   1      -4.329  -8.945   1.458  0.00  0.00     0.030 A 
ATOM     25  C   UNL d   1      -1.556  -9.403   1.025  0.00  0.00     0.014 A 
ATOM     26  C   UNL d   1      -2.453 -10.461   1.124  0.00  0.00     0.001 A 
ATOM     27  C   UNL d   1      -3.813 -10.234   1.331  0.00  0.00     0.002 A 
BRANCH  21  28
ATOM     28  C   UNL d   1      -4.855  -5.816   1.801  0.00  0.00     0.156 C 
BRANCH  28  29
ATOM     29  C   UNL d   1      -4.881  -4.798   2.974  0.00  0.00     0.254 C 
BRANCH  29  30
ATOM     30  N   UNL d   1      -3.871  -3.642   2.911  0.00  0.00    -0.077 N 
ATOM     31  H   UNL d   1      -3.984  -3.165   2.001  0.00  0.00     0.279 HD
ATOM     32  C   UNL d   1      -4.024  -2.620   3.995  0.00  0.00     0.269 C 
ATOM     33  C   UNL d   1      -2.465  -4.110   3.099  0.00  0.00     0.269 C 
ENDBRANCH  29  30
ENDBRANCH  28  29
ENDBRANCH  21  28
ENDBRANCH  18  19
ENDBRANCH   1  18
TORSDOF 9
