@<TRIPOS>MOLECULE
*****
 32 34 0 0 0
SMALL
GASTEIGER

@<TRIPOS>ATOM
      1 C          -9.7940   -0.1276   -2.4574 C.ar    1  UNL1       -0.0434
      2 C         -11.0020   -0.7750   -2.7082 C.ar    1  UNL1       -0.0425
      3 C         -11.1276   -1.6583   -3.7819 C.ar    1  UNL1        0.0410
      4 C         -10.0503   -1.8994   -4.6264 C.ar    1  UNL1       -0.0425
      5 C          -8.8064   -1.3562   -4.3019 C.ar    1  UNL1       -0.0434
      6 C          -8.6773   -0.4705   -3.2024 C.ar    1  UNL1        0.0892
      7 C          -7.3325    0.0313   -2.8633 C.2     1  UNL1        0.4141
      8 O          -6.4013   -0.3969   -3.5014 O.2     1  UNL1       -0.2141
      9 N          -7.0710    1.1040   -1.6630 N.am    1  UNL1       -0.1427
     10 H          -7.8716    1.3715   -1.0999 H       1  UNL1        0.4475
     11 C          -5.9008    1.5860   -1.3863 C.2     1  UNL1        0.2262
     12 C          -4.6882    1.0933   -2.1139 C.2     1  UNL1        0.0112
     13 C          -3.4611    1.4440   -1.7525 C.2     1  UNL1       -0.0566
     14 C          -3.2219    2.2492   -0.6188 C.2     1  UNL1       -0.0747
     15 C          -4.1916    2.7139    0.1590 C.2     1  UNL1       -0.1113
     16 C          -5.6092    2.5935   -0.2246 C.2     1  UNL1        0.1126
     17 N          -6.4106    3.3782    0.4894 N.2     1  UNL1       -0.2859
     18 C          -5.4445    3.6774    1.7391 C.3     1  UNL1        0.0726
     19 H          -5.8436    2.9198    2.4223 H       1  UNL1        0.0423
     20 N          -4.0945    3.3558    1.3031 N.pl3   1  UNL1       -0.6438
     21 C          -5.3007    4.9003    2.7490 C.3     1  UNL1        0.3956
     22 F          -4.4712    4.4789    3.7752 F       1  UNL1       -0.1702
     23 F          -4.7147    6.0179    2.2606 F       1  UNL1       -0.1702
     24 F          -6.4430    5.2627    3.3741 F       1  UNL1       -0.1702
     25 CL        -12.6179   -2.4701   -4.0367 Cl      1  UNL1       -0.0835
     26 H          -9.7662    0.6129   -1.6691 H       1  UNL1        0.0627
     27 H         -11.8474   -0.5845   -2.0526 H       1  UNL1        0.0632
     28 H         -10.1663   -2.5212   -5.5129 H       1  UNL1        0.0632
     29 H          -7.9470   -1.6428   -4.9148 H       1  UNL1        0.0627
     30 H          -4.7003    0.3760   -2.9121 H       1  UNL1        0.0684
     31 H          -2.6038    1.0313   -2.2699 H       1  UNL1        0.0619
     32 H          -2.1977    2.4450   -0.3289 H       1  UNL1        0.0606
@<TRIPOS>BOND
     1     1     2   ar
     2     2     3   ar
     3     3     4   ar
     4     4     5   ar
     5     5     6   ar
     6     1     6   ar
     7     6     7    1
     8     7     8    2
     9     7     9   am
    10     9    10    1
    11     9    11    2
    12    11    12    1
    13    12    13    2
    14    13    14    1
    15    14    15    2
    16    15    16    1
    17    11    16    1
    18    16    17    2
    19    17    18    1
    20    18    19    1
    21    18    20    1
    22    15    20    1
    23    18    21    1
    24    21    22    1
    25    21    23    1
    26    21    24    1
    27     3    25    1
    28     1    26    1
    29     2    27    1
    30     4    28    1
    31     5    29    1
    32    12    30    1
    33    13    31    1
    34    14    32    1
