@<TRIPOS>MOLECULE
*****
 43 45 0 0 0
SMALL
GASTEIGER

@<TRIPOS>ATOM
      1 O           0.9279   -0.1786   -0.0335 O.2     1  UNL1       -0.2758
      2 C           2.1544   -0.1122    0.0682 C.2     1  UNL1        0.2133
      3 C           3.0621   -1.3128   -0.1806 C.3     1  UNL1        0.0280
      4 C           3.9482   -1.2104   -1.4296 C.3     1  UNL1       -0.0174
      5 C           5.0015   -0.1456   -1.3649 C.ar    1  UNL1       -0.0219
      6 C           4.7917    1.1917   -1.6373 C.ar    1  UNL1        0.0059
      7 N           5.9295    1.8806   -1.3356 N.ar    1  UNL1       -0.3604
      8 H           6.0060    2.8883   -1.3043 H       1  UNL1        0.1653
      9 C           6.9152    1.0172   -0.9410 C.ar    1  UNL1        0.0467
     10 C           8.2290    1.2897   -0.5528 C.ar    1  UNL1       -0.0378
     11 C           9.0638    0.1945   -0.3355 C.ar    1  UNL1       -0.0598
     12 C           8.5794   -1.1085   -0.4390 C.ar    1  UNL1       -0.0611
     13 C           7.2339   -1.3556   -0.7383 C.ar    1  UNL1       -0.0523
     14 C           6.3826   -0.2709   -1.0135 C.ar    1  UNL1        0.0028
     15 N           2.8031    1.0215    0.4555 N.am    1  UNL1       -0.3150
     16 C           2.2199    2.3473    0.5925 C.3     1  UNL1        0.0165
     17 C           2.6675    2.9977    1.9200 C.3     1  UNL1       -0.0019
     18 C           4.1348    2.6866    2.2728 C.3     1  UNL1       -0.0446
     19 C           5.0308    3.3563    1.2490 C.3     1  UNL1       -0.0291
     20 C           4.8069    4.8499    1.2250 C.3     1  UNL1        0.0477
     21 O           3.4343    5.1243    0.9306 O.3     1  UNL1       -0.3794
     22 C           2.5235    4.5258    1.8636 C.3     1  UNL1        0.0519
     23 H           3.6655   -1.5014    0.7165 H       1  UNL1        0.0361
     24 H           2.4006   -2.1795   -0.3024 H       1  UNL1        0.0361
     25 H           4.4358   -2.1800   -1.5934 H       1  UNL1        0.0318
     26 H           3.3188   -1.0270   -2.3083 H       1  UNL1        0.0318
     27 H           3.8822    1.7189   -1.8990 H       1  UNL1        0.0810
     28 H           8.6023    2.3061   -0.4759 H       1  UNL1        0.0638
     29 H          10.1126    0.3638   -0.1048 H       1  UNL1        0.0618
     30 H           9.2555   -1.9468   -0.2958 H       1  UNL1        0.0618
     31 H           6.8664   -2.3741   -0.8084 H       1  UNL1        0.0624
     32 H           3.8141    0.9724    0.4566 H       1  UNL1        0.1487
     33 H           2.5470    2.9403   -0.2729 H       1  UNL1        0.0465
     34 H           1.1295    2.2890    0.5238 H       1  UNL1        0.0465
     35 H           2.0277    2.5916    2.7114 H       1  UNL1        0.0338
     36 H           4.3733    3.0618    3.2729 H       1  UNL1        0.0270
     37 H           4.3275    1.6086    2.3058 H       1  UNL1        0.0270
     38 H           4.7105    3.0121    0.2737 H       1  UNL1        0.0287
     39 H           6.0800    3.0871    1.3879 H       1  UNL1        0.0287
     40 H           5.4130    5.2877    0.4238 H       1  UNL1        0.0560
     41 H           5.0979    5.3105    2.1725 H       1  UNL1        0.0560
     42 H           1.5093    4.8055    1.5628 H       1  UNL1        0.0563
     43 H           2.7094    4.9613    2.8521 H       1  UNL1        0.0563
@<TRIPOS>BOND
     1     1     2    2
     2     2     3    1
     3     3     4    1
     4     4     5    1
     5     5     6   ar
     6     6     7   ar
     7     7     8    1
     8     7     9   ar
     9     9    10   ar
    10    10    11   ar
    11    11    12   ar
    12    12    13   ar
    13    13    14   ar
    14     5    14   ar
    15     9    14   ar
    16     2    15   am
    17    15    16    1
    18    16    17    1
    19    17    18    1
    20    18    19    1
    21    19    20    1
    22    20    21    1
    23    21    22    1
    24    17    22    1
    25     3    23    1
    26     3    24    1
    27     4    25    1
    28     4    26    1
    29     6    27    1
    30    10    28    1
    31    11    29    1
    32    12    30    1
    33    13    31    1
    34    15    32    1
    35    16    33    1
    36    16    34    1
    37    17    35    1
    38    18    36    1
    39    18    37    1
    40    19    38    1
    41    19    39    1
    42    20    40    1
    43    20    41    1
    44    22    42    1
    45    22    43    1
