REMARK  2 active torsions:
REMARK  status: ('A' for Active; 'I' for Inactive)
REMARK    1  A    between atoms: C_6  and  C_7 
REMARK       I    between atoms: C_7  and  N_9 
REMARK    2  A    between atoms: C_19  and  C_22 
ROOT
ATOM      1  C   UNL d   1      -7.332   0.031  -2.863  0.00  0.00     0.256 C 
ATOM      2  O   UNL d   1      -6.401  -0.397  -3.501  0.00  0.00    -0.267 OA
ATOM      3  N   UNL d   1      -7.071   1.104  -1.663  0.00  0.00    -0.321 N 
ATOM      4  H   UNL d   1      -7.872   1.371  -1.100  0.00  0.00     0.169 HD
ATOM      5  C   UNL d   1      -5.901   1.586  -1.386  0.00  0.00     0.064 C 
ATOM      6  C   UNL d   1      -4.688   1.093  -2.114  0.00  0.00     0.032 C 
ATOM      7  C   UNL d   1      -3.461   1.444  -1.752  0.00  0.00     0.005 C 
ATOM      8  C   UNL d   1      -3.222   2.249  -0.619  0.00  0.00     0.031 C 
ATOM      9  C   UNL d   1      -4.192   2.714   0.159  0.00  0.00     0.059 C 
ATOM     10  C   UNL d   1      -5.609   2.594  -0.225  0.00  0.00     0.083 C 
ATOM     11  N   UNL d   1      -6.411   3.378   0.489  0.00  0.00    -0.358 N 
ATOM     12  HN  UNL d   1      -7.361   3.697   0.300  1.00  0.00     0.162 HD
ATOM     13  C   UNL d   1      -5.444   3.677   1.739  0.00  0.00     0.292 C 
ATOM     14  N   UNL d   1      -4.095   3.356   1.303  0.00  0.00    -0.360 N 
ATOM     15  HN  UNL d   1      -3.231   3.586   1.795  1.00  0.00     0.162 HD
ENDROOT
BRANCH   1  16
ATOM     16  C   UNL d   1      -8.677  -0.470  -3.202  0.00  0.00     0.032 A 
ATOM     17  C   UNL d   1      -8.806  -1.356  -4.302  0.00  0.00     0.018 A 
ATOM     18  C   UNL d   1     -10.050  -1.899  -4.626  0.00  0.00     0.025 A 
ATOM     19  C   UNL d   1     -11.128  -1.658  -3.782  0.00  0.00     0.034 A 
ATOM     20  C   UNL d   1     -11.002  -0.775  -2.708  0.00  0.00     0.025 A 
ATOM     21 CL   UNL d   1     -12.618  -2.470  -4.037  0.00  0.00    -0.084 Cl
ATOM     22  C   UNL d   1      -9.794  -0.128  -2.457  0.00  0.00     0.018 A 
ENDBRANCH   1  16
BRANCH  13  23
ATOM     23  C   UNL d   1      -5.301   4.900   2.749  0.00  0.00     0.425 C 
ATOM     24  F   UNL d   1      -4.471   4.479   3.775  0.00  0.00    -0.167 F 
ATOM     25  F   UNL d   1      -4.715   6.018   2.261  0.00  0.00    -0.167 F 
ATOM     26  F   UNL d   1      -6.443   5.263   3.374  0.00  0.00    -0.167 F 
ENDBRANCH  13  23
TORSDOF 2
