MODEL 1
REMARK VINA RESULT:      -7.3      0.000      0.000
REMARK  9 active torsions:
REMARK  status: ('A' for Active; 'I' for Inactive)
REMARK    1  A    between atoms: C_9  and  C_5 
REMARK    2  A    between atoms: C_9  and  C_10 
REMARK    3  A    between atoms: C_9  and  N_16 
REMARK    4  A    between atoms: C_10  and  C_11 
REMARK    5  A    between atoms: N_16  and  C_17 
REMARK    6  A    between atoms: C_17  and  C_18 
REMARK    7  A    between atoms: N_20  and  C_27 
REMARK    8  A    between atoms: C_27  and  C_28 
REMARK    9  A    between atoms: C_28  and  N_29 
ROOT
ATOM      1  N   UNL d   1       2.157  26.734  30.435  0.00  0.00     0.098 N 
ATOM      2  H   UNL d   1       1.697  26.638  31.340  0.00  0.00     0.317 HD
ENDROOT
BRANCH   1   3
ATOM      3  C   UNL d   1       1.516  27.871  29.706  0.00  0.00     0.274 C 
BRANCH   3   4
ATOM      4  C   UNL d   1       0.548  27.352  28.640  0.00  0.00     0.081 C 
BRANCH   4   5
ATOM      5  C   UNL d   1       1.112  27.409  27.270  0.00  0.00    -0.049 A 
ATOM      6  C   UNL d   1       1.608  28.588  26.640  0.00  0.00     0.015 A 
ATOM      7  C   UNL d   1       2.077  28.326  25.374  0.00  0.00     0.050 A 
ATOM      8  S   UNL d   1       1.940  26.673  24.957  0.00  0.00    -0.113 SA
ATOM      9  C   UNL d   1       1.246  26.297  26.464  0.00  0.00     0.056 A 
ENDBRANCH   4   5
ENDBRANCH   3   4
BRANCH   3  10
ATOM     10  C   UNL d   1       0.586  28.796  30.503  0.00  0.00     0.042 A 
ATOM     11  C   UNL d   1       0.715  30.187  30.384  0.00  0.00     0.028 A 
ATOM     12  C   UNL d   1       0.012  30.999  31.272  0.00  0.00     0.010 A 
ATOM     13  C   UNL d   1      -0.791  30.415  32.262  0.00  0.00    -0.047 A 
ATOM     14  C   UNL d   1      -1.443  31.236  33.332  0.00  0.00     0.049 C 
ATOM     15  C   UNL d   1      -0.858  29.025  32.300  0.00  0.00     0.095 A 
ATOM     16  N   UNL d   1      -0.239  28.216  31.414  0.00  0.00    -0.367 N 
ATOM     17  HN  UNL d   1      -0.384  27.206  31.428  1.00  0.00     0.165 HD
ENDBRANCH   3  10
ENDBRANCH   1   3
BRANCH   1  18
ATOM     18  C   UNL d   1       3.598  26.782  30.643  0.00  0.00     0.311 C 
BRANCH  18  19
ATOM     19  C   UNL d   1       4.280  26.781  29.327  0.00  0.00    -0.002 C 
ATOM     20  C   UNL d   1       4.298  25.672  28.503  0.00  0.00     0.101 C 
ATOM     21  N   UNL d   1       5.079  25.863  27.412  0.00  0.00    -0.354 N 
ATOM     22  C   UNL d   1       5.255  27.221  27.297  0.00  0.00     0.045 A 
ATOM     23  C   UNL d   1       4.786  27.799  28.500  0.00  0.00     0.000 A 
ATOM     24  C   UNL d   1       5.703  27.994  26.232  0.00  0.00     0.030 A 
ATOM     25  C   UNL d   1       4.780  29.193  28.646  0.00  0.00     0.014 A 
ATOM     26  C   UNL d   1       5.223  29.968  27.581  0.00  0.00     0.001 A 
ATOM     27  C   UNL d   1       5.672  29.379  26.398  0.00  0.00     0.002 A 
BRANCH  21  28
ATOM     28  C   UNL d   1       5.478  24.793  26.503  0.00  0.00     0.156 C 
BRANCH  28  29
ATOM     29  C   UNL d   1       6.986  24.589  26.207  0.00  0.00     0.254 C 
BRANCH  29  30
ATOM     30  N   UNL d   1       7.360  24.311  24.732  0.00  0.00    -0.077 N 
ATOM     31  H   UNL d   1       8.367  24.081  24.698  0.00  0.00     0.279 HD
ATOM     32  C   UNL d   1       6.589  23.210  24.092  0.00  0.00     0.269 C 
ATOM     33  C   UNL d   1       7.067  25.454  23.829  0.00  0.00     0.269 C 
ENDBRANCH  29  30
ENDBRANCH  28  29
ENDBRANCH  21  28
ENDBRANCH  18  19
ENDBRANCH   1  18
TORSDOF 9
ENDMDL
MODEL 2
REMARK VINA RESULT:      -7.2      1.936      8.473
REMARK  9 active torsions:
REMARK  status: ('A' for Active; 'I' for Inactive)
REMARK    1  A    between atoms: C_9  and  C_5 
REMARK    2  A    between atoms: C_9  and  C_10 
REMARK    3  A    between atoms: C_9  and  N_16 
REMARK    4  A    between atoms: C_10  and  C_11 
REMARK    5  A    between atoms: N_16  and  C_17 
REMARK    6  A    between atoms: C_17  and  C_18 
REMARK    7  A    between atoms: N_20  and  C_27 
REMARK    8  A    between atoms: C_27  and  C_28 
REMARK    9  A    between atoms: C_28  and  N_29 
ROOT
ATOM      1  N   UNL d   1       2.937  26.764  25.428  0.00  0.00     0.098 N 
ATOM      2  H   UNL d   1       2.986  26.562  24.431  0.00  0.00     0.317 HD
ENDROOT
BRANCH   1   3
ATOM      3  C   UNL d   1       4.311  26.617  26.000  0.00  0.00     0.274 C 
BRANCH   3   4
ATOM      4  C   UNL d   1       4.300  25.659  27.193  0.00  0.00     0.081 C 
BRANCH   4   5
ATOM      5  C   UNL d   1       4.286  26.362  28.499  0.00  0.00    -0.049 A 
ATOM      6  C   UNL d   1       3.409  26.057  29.581  0.00  0.00     0.015 A 
ATOM      7  C   UNL d   1       3.639  26.871  30.665  0.00  0.00     0.050 A 
ATOM      8  S   UNL d   1       4.912  27.979  30.389  0.00  0.00    -0.113 SA
ATOM      9  C   UNL d   1       5.161  27.382  28.815  0.00  0.00     0.056 A 
ENDBRANCH   4   5
ENDBRANCH   3   4
BRANCH   3  10
ATOM     10  C   UNL d   1       5.383  25.958  25.121  0.00  0.00     0.042 A 
ATOM     11  C   UNL d   1       5.779  26.573  23.924  0.00  0.00     0.028 A 
ATOM     12  C   UNL d   1       6.587  25.856  23.044  0.00  0.00     0.010 A 
ATOM     13  C   UNL d   1       6.973  24.546  23.364  0.00  0.00    -0.047 A 
ATOM     14  C   UNL d   1       7.711  23.683  22.387  0.00  0.00     0.049 C 
ATOM     15  C   UNL d   1       6.533  24.022  24.576  0.00  0.00     0.095 A 
ATOM     16  N   UNL d   1       5.802  24.715  25.476  0.00  0.00    -0.367 N 
ATOM     17  HN  UNL d   1       5.574  24.321  26.388  1.00  0.00     0.165 HD
ENDBRANCH   3  10
ENDBRANCH   1   3
BRANCH   1  18
ATOM     18  C   UNL d   1       2.252  28.035  25.617  0.00  0.00     0.311 C 
BRANCH  18  19
ATOM     19  C   UNL d   1       1.596  28.043  26.947  0.00  0.00    -0.002 C 
ATOM     20  C   UNL d   1       1.670  29.125  27.802  0.00  0.00     0.101 C 
ATOM     21  N   UNL d   1       1.101  28.862  29.004  0.00  0.00    -0.354 N 
ATOM     22  C   UNL d   1       0.298  27.763  28.818  0.00  0.00     0.045 A 
ATOM     23  C   UNL d   1       0.621  27.228  27.549  0.00  0.00     0.000 A 
ATOM     24  C   UNL d   1      -0.726  27.241  29.600  0.00  0.00     0.030 A 
ATOM     25  C   UNL d   1      -0.092  26.127  27.055  0.00  0.00     0.014 A 
ATOM     26  C   UNL d   1      -1.118  25.607  27.833  0.00  0.00     0.001 A 
ATOM     27  C   UNL d   1      -1.430  26.155  29.078  0.00  0.00     0.002 A 
BRANCH  21  28
ATOM     28  C   UNL d   1       1.244  29.722  30.175  0.00  0.00     0.156 C 
BRANCH  28  29
ATOM     29  C   UNL d   1       0.098  30.707  30.521  0.00  0.00     0.254 C 
BRANCH  29  30
ATOM     30  N   UNL d   1      -0.176  30.933  32.026  0.00  0.00    -0.077 N 
ATOM     31  H   UNL d   1       0.669  31.358  32.441  0.00  0.00     0.279 HD
ATOM     32  C   UNL d   1      -1.351  31.799  32.321  0.00  0.00     0.269 C 
ATOM     33  C   UNL d   1      -0.527  29.684  32.750  0.00  0.00     0.269 C 
ENDBRANCH  29  30
ENDBRANCH  28  29
ENDBRANCH  21  28
ENDBRANCH  18  19
ENDBRANCH   1  18
TORSDOF 9
ENDMDL
MODEL 3
REMARK VINA RESULT:      -7.1      2.094      8.340
REMARK  9 active torsions:
REMARK  status: ('A' for Active; 'I' for Inactive)
REMARK    1  A    between atoms: C_9  and  C_5 
REMARK    2  A    between atoms: C_9  and  C_10 
REMARK    3  A    between atoms: C_9  and  N_16 
REMARK    4  A    between atoms: C_10  and  C_11 
REMARK    5  A    between atoms: N_16  and  C_17 
REMARK    6  A    between atoms: C_17  and  C_18 
REMARK    7  A    between atoms: N_20  and  C_27 
REMARK    8  A    between atoms: C_27  and  C_28 
REMARK    9  A    between atoms: C_28  and  N_29 
ROOT
ATOM      1  N   UNL d   1       4.389  26.601  25.398  0.00  0.00     0.098 N 
ATOM      2  H   UNL d   1       4.182  25.606  25.474  0.00  0.00     0.317 HD
ENDROOT
BRANCH   1   3
ATOM      3  C   UNL d   1       5.827  26.747  25.012  0.00  0.00     0.274 C 
BRANCH   3   4
ATOM      4  C   UNL d   1       6.683  27.088  26.233  0.00  0.00     0.081 C 
BRANCH   4   5
ATOM      5  C   UNL d   1       5.916  27.766  27.306  0.00  0.00    -0.049 A 
ATOM      6  C   UNL d   1       5.381  29.085  27.218  0.00  0.00     0.015 A 
ATOM      7  C   UNL d   1       4.710  29.437  28.365  0.00  0.00     0.050 A 
ATOM      8  S   UNL d   1       4.707  28.184  29.529  0.00  0.00    -0.113 SA
ATOM      9  C   UNL d   1       5.609  27.164  28.509  0.00  0.00     0.056 A 
ENDBRANCH   4   5
ENDBRANCH   3   4
BRANCH   3  10
ATOM     10  C   UNL d   1       6.557  25.499  24.496  0.00  0.00     0.042 A 
ATOM     11  C   UNL d   1       6.884  25.394  23.136  0.00  0.00     0.028 A 
ATOM     12  C   UNL d   1       7.348  24.171  22.658  0.00  0.00     0.010 A 
ATOM     13  C   UNL d   1       7.467  23.080  23.531  0.00  0.00    -0.047 A 
ATOM     14  C   UNL d   1       7.814  21.710  23.037  0.00  0.00     0.049 C 
ATOM     15  C   UNL d   1       7.121  23.283  24.864  0.00  0.00     0.095 A 
ATOM     16  N   UNL d   1       6.729  24.473  25.369  0.00  0.00    -0.367 N 
ATOM     17  HN  UNL d   1       6.567  24.596  26.369  1.00  0.00     0.165 HD
ENDBRANCH   3  10
ENDBRANCH   1   3
BRANCH   1  18
ATOM     18  C   UNL d   1       3.387  27.227  24.548  0.00  0.00     0.311 C 
BRANCH  18  19
ATOM     19  C   UNL d   1       2.078  27.210  25.244  0.00  0.00    -0.002 C 
ATOM     20  C   UNL d   1       1.970  27.081  26.615  0.00  0.00     0.101 C 
ATOM     21  N   UNL d   1       0.680  26.969  27.014  0.00  0.00    -0.354 N 
ATOM     22  C   UNL d   1      -0.087  27.425  25.971  0.00  0.00     0.045 A 
ATOM     23  C   UNL d   1       0.771  27.550  24.853  0.00  0.00     0.000 A 
ATOM     24  C   UNL d   1      -1.422  27.812  25.923  0.00  0.00     0.030 A 
ATOM     25  C   UNL d   1       0.274  28.064  23.647  0.00  0.00     0.014 A 
ATOM     26  C   UNL d   1      -1.058  28.455  23.599  0.00  0.00     0.001 A 
ATOM     27  C   UNL d   1      -1.887  28.333  24.715  0.00  0.00     0.002 A 
BRANCH  21  28
ATOM     28  C   UNL d   1       0.279  26.580  28.363  0.00  0.00     0.156 C 
BRANCH  28  29
ATOM     29  C   UNL d   1       1.224  26.911  29.547  0.00  0.00     0.254 C 
BRANCH  29  30
ATOM     30  N   UNL d   1       0.745  28.022  30.511  0.00  0.00    -0.077 N 
ATOM     31  H   UNL d   1       1.098  27.795  31.455  0.00  0.00     0.279 HD
ATOM     32  C   UNL d   1       1.187  29.396  30.144  0.00  0.00     0.269 C 
ATOM     33  C   UNL d   1      -0.732  28.174  30.540  0.00  0.00     0.269 C 
ENDBRANCH  29  30
ENDBRANCH  28  29
ENDBRANCH  21  28
ENDBRANCH  18  19
ENDBRANCH   1  18
TORSDOF 9
ENDMDL
