REMARK  6 active torsions:
REMARK  status: ('A' for Active; 'I' for Inactive)
REMARK    1  A    between atoms: C3_3  and  C13_14 
REMARK    2  A    between atoms: C6_6  and  C7_7 
REMARK    3  A    between atoms: C7_7  and  N1_8 
REMARK    4  A    between atoms: C14_15  and  C21_25 
REMARK    5  A    between atoms: C17_19  and  O2_24 
REMARK    6  A    between atoms: C24_28  and  O3_31 
ROOT
ATOM      1  C13 <0> d           3.902   2.228  -0.097  0.00  0.00     0.180 C 
ATOM      2  C14 <0> d           4.259   2.219   1.399  0.00  0.00     0.119 C 
ATOM      3  S1  <0> d           5.644   3.378   1.622  0.00  0.00    -0.114 SA
ATOM      4  C15 <0> d           6.692   2.996   0.253  0.00  0.00     0.037 A 
ATOM      5  C16 <0> d           7.991   3.486   0.240  0.00  0.00     0.057 A 
ATOM      6  C17 <0> d           8.830   3.207  -0.827  0.00  0.00     0.067 A 
ATOM      7  C18 <0> d           8.364   2.437  -1.883  0.00  0.00     0.039 A 
ATOM      8  C19 <0> d           7.074   1.947  -1.869  0.00  0.00     0.041 A 
ATOM      9  C20 <0> d           6.224   2.216  -0.799  0.00  0.00     0.086 A 
ATOM     10  O1  <0> d           4.982   1.678  -0.836  0.00  0.00    -0.338 OA
ENDROOT
BRANCH   1  11
ATOM     11  C3  <0> d           2.663   1.401  -0.325  0.00  0.00    -0.028 A 
ATOM     12  C2  <0> d           1.436   2.021  -0.471  0.00  0.00     0.010 A 
ATOM     13  C1  <0> d           0.299   1.263  -0.681  0.00  0.00     0.009 A 
ATOM     14  C6  <0> d           0.390  -0.115  -0.745  0.00  0.00    -0.033 A 
ATOM     15  C5  <0> d           1.617  -0.735  -0.597  0.00  0.00     0.009 A 
ATOM     16  C4  <0> d           2.753   0.023  -0.388  0.00  0.00     0.010 A 
BRANCH  14  17
ATOM     17  C7  <0> d          -0.850  -0.942  -0.973  0.00  0.00     0.273 C 
BRANCH  17  18
ATOM     18  N1  <0> d          -1.051  -1.134  -2.416  0.00  0.00    -0.067 N 
ATOM     19  C12 <0> d          -2.188  -2.037  -2.633  0.00  0.00     0.235 C 
ATOM     20  C11 <0> d          -2.352  -2.304  -4.131  0.00  0.00     0.028 C 
ATOM     21  C10 <0> d          -2.604  -0.979  -4.856  0.00  0.00     0.003 C 
ATOM     22  C9  <0> d          -1.448  -0.019  -4.561  0.00  0.00     0.028 C 
ATOM     23  C8  <0> d          -1.318   0.164  -3.048  0.00  0.00     0.235 C 
ATOM     24  H28 <0> d          -0.220  -1.538  -2.820  0.00  0.00     0.280 HD
ENDBRANCH  17  18
ENDBRANCH  14  17
ENDBRANCH   1  11
BRANCH   2  25
ATOM     25  C21 <0> d           4.673   0.832   1.820  0.00  0.00    -0.041 A 
ATOM     26  C26 <0> d           3.807   0.048   2.559  0.00  0.00     0.011 A 
ATOM     27  C25 <0> d           4.183  -1.225   2.942  0.00  0.00     0.037 A 
ATOM     28  C24 <0> d           5.434  -1.713   2.593  0.00  0.00     0.065 A 
ATOM     29  C23 <0> d           6.303  -0.921   1.856  0.00  0.00     0.037 A 
ATOM     30  C22 <0> d           5.921   0.349   1.472  0.00  0.00     0.011 A 
BRANCH  28  31
ATOM     31  O3  <0> d           5.807  -2.963   2.972  0.00  0.00    -0.361 OA
ATOM     32  H27 <0> d           6.252  -2.998   3.830  0.00  0.00     0.217 HD
ENDBRANCH  28  31
ENDBRANCH   2  25
BRANCH   6  33
ATOM     33  O2  <0> d          10.103   3.685  -0.839  0.00  0.00    -0.361 OA
ATOM     34  H22 <0> d          10.749   3.092  -0.432  0.00  0.00     0.217 HD
ENDBRANCH   6  33
TORSDOF 6
