@<TRIPOS>MOLECULE
*****
 57 60 0 0 0
SMALL
GASTEIGER

@<TRIPOS>ATOM
      1 C           3.1283   -0.5151   -5.9007 C.3     1  UNL1       -0.0647
      2 C           4.2876   -1.2846   -5.2582 C.3     1  UNL1       -0.0493
      3 C           4.7573   -0.7763   -3.8744 C.3     1  UNL1       -0.0189
      4 H           3.8636   -0.6853   -3.2363 H       1  UNL1        0.0346
      5 C           5.6543   -1.8551   -3.2301 C.3     1  UNL1       -0.0584
      6 C           5.4591    0.5865   -3.8829 C.ar    1  UNL1       -0.0444
      7 C           6.2468    0.9929   -2.8024 C.ar    1  UNL1       -0.0566
      8 C           6.7170    2.2983   -2.6780 C.ar    1  UNL1       -0.0404
      9 C           6.4553    3.2434   -3.6409 C.ar    1  UNL1        0.0324
     10 C           5.8383    2.8084   -4.8234 C.ar    1  UNL1       -0.0404
     11 C           5.3536    1.5039   -4.9277 C.ar    1  UNL1       -0.0566
     12 N           6.5878    4.5836   -3.3813 N.pl3   1  UNL1       -0.2769
     13 C           7.1131    5.3842   -2.2321 C.3     1  UNL1        0.3303
     14 H           8.1584    5.7125   -2.3719 H       1  UNL1        0.1439
     15 C           6.1045    6.4757   -2.3058 C.2     1  UNL1        0.4140
     16 N           6.6008    7.6494   -2.0632 N.2     1  UNL1        0.1019
     17 S           5.9975    8.4189   -0.8256 S.O2    1  UNL1        0.1790
     18 O           4.5611    8.3506   -1.0980 O.2     1  UNL1       -0.1251
     19 O           6.6633    7.8031    0.2932 O.2     1  UNL1       -0.1251
     20 C           6.4225   10.0222   -0.5505 C.ar    1  UNL1        0.1348
     21 C           5.6440   10.8147    0.3041 C.ar    1  UNL1       -0.0301
     22 C           5.9699   12.1482    0.3592 C.ar    1  UNL1       -0.0245
     23 C           7.1415   12.5671   -0.2726 C.ar    1  UNL1        0.1235
     24 C           8.0241   11.6791   -0.8905 C.ar    1  UNL1       -0.0245
     25 C           7.6443   10.3815   -1.0687 C.ar    1  UNL1       -0.0301
     26 F           7.4253   13.8680   -0.3125 F       1  UNL1       -0.2055
     27 N           4.5494    5.4155   -1.9248 N.2     1  UNL1       -0.2269
     28 H           4.7984    4.5069   -2.3853 H       1  UNL1        0.3116
     29 C           4.3610    5.1650   -0.6832 C.ar    1  UNL1        0.1978
     30 C           3.1141    4.7374   -0.0208 C.ar    1  UNL1       -0.0086
     31 C           2.4612    5.6881    0.6630 C.ar    1  UNL1       -0.0574
     32 C           3.1888    6.8714    1.0008 C.ar    1  UNL1       -0.0553
     33 C           4.5548    6.8128    1.0382 C.ar    1  UNL1        0.0136
     34 C           5.4789    5.5779    0.1696 C.ar    1  UNL1        0.2496
     35 N           6.6911    5.2991   -0.4694 N.2     1  UNL1       -0.2083
     36 H           7.1619    4.3823   -0.4161 H       1  UNL1        0.4483
     37 H           2.2586   -0.5053   -5.2417 H       1  UNL1        0.0230
     38 H           2.8742   -0.9773   -6.8580 H       1  UNL1        0.0230
     39 H           3.3046    0.5286   -6.1485 H       1  UNL1        0.0230
     40 H           3.9299   -2.3171   -5.1452 H       1  UNL1        0.0268
     41 H           5.1484   -1.3308   -5.9365 H       1  UNL1        0.0268
     42 H           6.5937   -1.9539   -3.7844 H       1  UNL1        0.0236
     43 H           5.9024   -1.6184   -2.1896 H       1  UNL1        0.0236
     44 H           5.1627   -2.8324   -3.1985 H       1  UNL1        0.0236
     45 H           6.5394    0.2939   -2.0265 H       1  UNL1        0.0621
     46 H           7.3059    2.5359   -1.8084 H       1  UNL1        0.0636
     47 H           5.6815    3.4333   -5.7079 H       1  UNL1        0.0636
     48 H           4.9175    1.2491   -5.8827 H       1  UNL1        0.0621
     49 H           6.6908    5.0599   -4.3075 H       1  UNL1        0.1528
     50 H           4.8068   10.4287    0.8919 H       1  UNL1        0.0639
     51 H           5.3257   12.8617    0.8642 H       1  UNL1        0.0647
     52 H           8.9833   11.9993   -1.2698 H       1  UNL1        0.0647
     53 H           8.2726    9.6538   -1.5721 H       1  UNL1        0.0639
     54 H           2.8118    3.7075    0.0245 H       1  UNL1        0.0662
     55 H           1.4881    5.5521    1.1459 H       1  UNL1        0.0619
     56 H           2.5780    7.7506    1.2934 H       1  UNL1        0.0620
     57 H           4.8994    7.8043    1.3576 H       1  UNL1        0.0685
@<TRIPOS>BOND
     1     1     2    1
     2     2     3    1
     3     3     4    1
     4     3     5    1
     5     3     6    1
     6     6     7   ar
     7     7     8   ar
     8     8     9   ar
     9     9    10   ar
    10    10    11   ar
    11     6    11   ar
    12     9    12    1
    13    13    15    1
    14    15    16    2
    15    16    17    1
    16    17    18    2
    17    17    19    2
    18    17    20    1
    19    20    21   ar
    20    21    22   ar
    21    22    23   ar
    22    23    24   ar
    23    24    25   ar
    24    20    25   ar
    25    23    26    1
    26    15    27    1
    27    27    28    1
    28    27    29    2
    29    29    30   ar
    30    30    31   ar
    31    31    32   ar
    32    32    33   ar
    33    33    34   ar
    34    29    34   ar
    35    34    35    2
    36    35    36    1
    37    13    35    1
    38     1    37    1
    39     1    38    1
    40     1    39    1
    41     2    40    1
    42     2    41    1
    43     5    42    1
    44     5    43    1
    45     5    44    1
    46     7    45    1
    47     8    46    1
    48    10    47    1
    49    11    48    1
    50    12    49    1
    51    21    50    1
    52    22    51    1
    53    24    52    1
    54    25    53    1
    55    30    54    1
    56    31    55    1
    57    32    56    1
    58    33    57    1
    59    13    14    1
    60    13    12    1
