@<TRIPOS>MOLECULE
*****
 61 64 0 0 0
SMALL
GASTEIGER

@<TRIPOS>ATOM
      1 C           3.5483    8.2266    4.2215 C.3     1  UNL1       -0.0383
      2 C           2.5759    7.4874    3.3608 C.ar    1  UNL1       -0.0323
      3 C           2.5046    6.1043    3.4119 C.ar    1  UNL1       -0.0557
      4 C           1.5406    5.4257    2.6735 C.ar    1  UNL1       -0.0386
      5 C           0.5664    6.1472    2.0078 C.ar    1  UNL1        0.0585
      6 N           0.6801    7.4878    1.8438 N.ar    1  UNL1       -0.2580
      7 C           1.6970    8.1171    2.4915 C.ar    1  UNL1        0.0308
      8 C          -0.6510    5.3716    1.4885 C.3     1  UNL1        0.0544
      9 H          -0.3088    4.3487    1.2881 H       1  UNL1        0.0529
     10 C          -1.0216    6.0299    0.1551 C.3     1  UNL1       -0.0061
     11 C          -2.0339    5.2602   -0.6274 C.ar    1  UNL1       -0.0385
     12 C          -2.0534    3.8369   -0.7809 C.ar    1  UNL1       -0.0515
     13 C          -3.1066    3.4131   -1.5544 C.ar    1  UNL1       -0.0241
     14 S          -4.0703    4.7153   -2.0966 S.2     1  UNL1       -0.1048
     15 C          -3.0889    5.8526   -1.2900 C.ar    1  UNL1       -0.0211
     16 N          -1.8702    5.2430    2.3276 N.3     1  UNL1       -0.3037
     17 C          -1.7840    4.6113    3.6223 C.3     1  UNL1        0.0238
     18 C          -0.9959    5.4420    4.5701 C.ar    1  UNL1       -0.0084
     19 C           0.2347    5.0410    5.0454 C.ar    1  UNL1        0.0103
     20 N           0.7456    5.9111    5.9535 N.ar    1  UNL1       -0.3412
     21 C           0.1323    7.1161    5.6855 C.ar    1  UNL1        0.0495
     22 C          -0.9765    6.8293    4.8539 C.ar    1  UNL1        0.0042
     23 C          -1.6982    7.8900    4.2778 C.ar    1  UNL1       -0.0523
     24 C          -1.2828    9.1934    4.5024 C.ar    1  UNL1       -0.0611
     25 C          -0.2014    9.4580    5.3348 C.ar    1  UNL1       -0.0598
     26 C           0.5164    8.4308    5.9592 C.ar    1  UNL1       -0.0376
     27 C           1.9485    5.6222    6.7384 C.3     1  UNL1        0.0633
     28 C           1.7333    4.7223    7.9872 C.3     1  UNL1       -0.0140
     29 N           1.3602    3.2500    7.6943 N.4     1  UNL1        0.2322
     30 H           2.1183    2.8482    7.1212 H       1  UNL1        0.2028
     31 C           1.1702    2.3817    8.8759 C.3     1  UNL1       -0.0433
     32 C           0.1073    3.0994    6.9307 C.3     1  UNL1       -0.0433
     33 H           4.5622    8.0318    3.8671 H       1  UNL1        0.0278
     34 H           3.4860    7.9022    5.2691 H       1  UNL1        0.0278
     35 H           3.3604    9.3040    4.2129 H       1  UNL1        0.0278
     36 H           3.0993    5.5535    4.1283 H       1  UNL1        0.0621
     37 H           1.3986    4.3562    2.7873 H       1  UNL1        0.0636
     38 H           1.7589    9.1863    2.3118 H       1  UNL1        0.0832
     39 H          -1.3993    7.0457    0.3451 H       1  UNL1        0.0332
     40 H          -0.1212    6.1374   -0.4629 H       1  UNL1        0.0332
     41 H          -1.3408    3.1537   -0.3340 H       1  UNL1        0.0626
     42 H          -3.3546    2.3978   -1.8249 H       1  UNL1        0.0693
     43 H          -3.3191    6.9095   -1.3300 H       1  UNL1        0.0696
     44 H          -2.3670    6.1220    2.3768 H       1  UNL1        0.1229
     45 H          -2.7828    4.4323    4.0452 H       1  UNL1        0.0474
     46 H          -1.3446    3.6078    3.5161 H       1  UNL1        0.0474
     47 H           0.7847    4.2036    4.6657 H       1  UNL1        0.0812
     48 H          -2.4724    7.7029    3.5446 H       1  UNL1        0.0624
     49 H          -1.7875    9.9929    3.9680 H       1  UNL1        0.0618
     50 H           0.1190   10.4873    5.4603 H       1  UNL1        0.0618
     51 H           1.4175    8.6628    6.5159 H       1  UNL1        0.0638
     52 H           2.6924    5.1357    6.0981 H       1  UNL1        0.0545
     53 H           2.3867    6.5799    7.0437 H       1  UNL1        0.0545
     54 H           2.6811    4.6649    8.5387 H       1  UNL1        0.0832
     55 H           0.9551    5.1382    8.6290 H       1  UNL1        0.0832
     56 H           0.3521    2.8117    9.4561 H       1  UNL1        0.0777
     57 H           0.8880    1.3939    8.4900 H       1  UNL1        0.0777
     58 H           2.1092    2.3272    9.4162 H       1  UNL1        0.0777
     59 H          -0.6774    3.7610    7.3098 H       1  UNL1        0.0777
     60 H           0.5149    3.3263    6.0040 H       1  UNL1        0.0777
     61 H          -0.1958    2.0836    6.6753 H       1  UNL1        0.0777
@<TRIPOS>BOND
     1     1     2    1
     2     2     3   ar
     3     3     4   ar
     4     4     5   ar
     5     5     6   ar
     6     6     7   ar
     7     2     7   ar
     8     8    10    1
     9    10    11    1
    10    11    12   ar
    11    12    13   ar
    12    13    14   ar
    13    14    15   ar
    14    11    15   ar
    15     8    16    1
    16    16    17    1
    17    17    18    1
    18    18    19   ar
    19    19    20   ar
    20    20    21   ar
    21    21    22   ar
    22    18    22   ar
    23    22    23   ar
    24    23    24   ar
    25    24    25   ar
    26    25    26   ar
    27    21    26   ar
    28    20    27    1
    29    27    28    1
    30    28    29    1
    31    29    30    1
    32    29    31    1
    33    29    32    1
    34     1    33    1
    35     1    34    1
    36     1    35    1
    37     3    36    1
    38     4    37    1
    39     7    38    1
    40    10    39    1
    41    10    40    1
    42    12    41    1
    43    13    42    1
    44    15    43    1
    45    16    44    1
    46    17    45    1
    47    17    46    1
    48    19    47    1
    49    23    48    1
    50    24    49    1
    51    25    50    1
    52    26    51    1
    53    27    52    1
    54    27    53    1
    55    28    54    1
    56    28    55    1
    57    31    56    1
    58    31    57    1
    59    31    58    1
    60    32    59    1
    61    32    60    1
    62    32    61    1
    63     8     9    1
    64     8     5    1
