REMARK  1 active torsions:
REMARK  status: ('A' for Active; 'I' for Inactive)
REMARK    1  A    between atoms: N_7  and  C_8 
ROOT
ATOM      1  N   UNL d   1       1.119  -0.043   0.025  0.00  0.00    -0.191 NA
ATOM      2  C   UNL d   1       2.284  -0.063   0.034  0.00  0.00     0.104 C 
ATOM      3  C   UNL d   1       3.702  -0.140   0.052  0.00  0.00     0.106 A 
ATOM      4  C   UNL d   1       4.625   0.911   0.066  0.00  0.00     0.134 A 
ATOM      5  N   UNL d   1       5.884   0.466   0.136  0.00  0.00    -0.306 N 
ATOM      6  HN  UNL d   1       6.737   1.019   0.217  1.00  0.00     0.186 HD
ATOM      7  N   UNL d   1       5.774  -0.913   0.076  0.00  0.00    -0.267 N 
ATOM      8  C   UNL d   1       4.454  -1.299   0.088  0.00  0.00     0.139 A 
ATOM      9  N   UNL d   1       4.052  -2.579   0.135  0.00  0.00    -0.383 N 
ATOM     10  H   UNL d   1       4.688  -3.359   0.019  0.00  0.00     0.157 HD
ATOM     11  H   UNL d   1       3.078  -2.834  -0.004  0.00  0.00     0.157 HD
ENDROOT
BRANCH   7  12
ATOM     12  C   UNL d   1       7.054  -1.693  -0.086  0.00  0.00     0.146 C 
ATOM     13  C   UNL d   1       7.845  -1.006  -1.234  0.00  0.00     0.034 C 
ATOM     14  C   UNL d   1       7.019  -0.911  -2.536  0.00  0.00     0.029 C 
ATOM     15  C   UNL d   1       6.752  -2.269  -3.171  0.00  0.00     0.175 C 
ATOM     16  O   UNL d   1       5.865  -3.071  -2.383  0.00  0.00    -0.351 OA
ATOM     17  C   UNL d   1       6.560  -3.823  -1.477  0.00  0.00     0.077 A 
ATOM     18  C   UNL d   1       6.663  -5.204  -1.736  0.00  0.00     0.039 A 
ATOM     19  C   UNL d   1       7.093  -3.228  -0.324  0.00  0.00     0.002 A 
ATOM     20  C   UNL d   1       7.396  -6.031  -0.888  0.00  0.00     0.026 A 
ATOM     21  C   UNL d   1       7.995  -5.471   0.233  0.00  0.00     0.034 A 
ATOM     22 CL   UNL d   1       8.936  -6.489   1.262  0.00  0.00    -0.084 Cl
ATOM     23  C   UNL d   1       7.846  -4.095   0.518  0.00  0.00     0.036 A 
ENDBRANCH   7  12
TORSDOF 1
