MODEL 1
REMARK VINA RESULT:      -8.4      0.000      0.000
REMARK  5 active torsions:
REMARK  status: ('A' for Active; 'I' for Inactive)
REMARK    1  A    between atoms: C_2  and  C_3 
REMARK       I    between atoms: C_2  and  N_15 
REMARK    2  A    between atoms: C_3  and  C_4 
REMARK    3  A    between atoms: C_4  and  C_5 
REMARK    4  A    between atoms: N_15  and  C_16 
REMARK    5  A    between atoms: C_16  and  C_17 
ROOT
ATOM      1  C   UNL d   1       7.770  23.385  22.525  0.00  0.00     0.107 C 
ENDROOT
BRANCH   1   2
ATOM      2  C   UNL d   1       6.574  24.284  22.827  0.00  0.00     0.217 C 
ATOM      3  O   UNL d   1       5.805  24.676  21.949  0.00  0.00    -0.274 OA
ATOM      4  N   UNL d   1       6.401  24.577  24.147  0.00  0.00    -0.361 N 
ATOM      5  H   UNL d   1       7.124  24.240  24.771  0.00  0.00     0.162 HD
BRANCH   4   6
ATOM      6  C   UNL d   1       5.462  25.537  24.703  0.00  0.00     0.129 C 
BRANCH   6   7
ATOM      7  C   UNL d   1       6.204  26.809  25.168  0.00  0.00     0.027 C 
ATOM      8  C   UNL d   1       5.507  27.507  26.353  0.00  0.00     0.010 C 
ATOM      9  C   UNL d   1       5.594  26.602  27.566  0.00  0.00     0.027 C 
ATOM     10  C   UNL d   1       7.032  26.297  27.914  0.00  0.00     0.167 C 
ATOM     11  O   UNL d   1       7.676  25.682  26.795  0.00  0.00    -0.391 OA
ATOM     12  C   UNL d   1       7.639  26.485  25.607  0.00  0.00     0.173 C 
ENDBRANCH   6   7
ENDBRANCH   4   6
ENDBRANCH   1   2
BRANCH   1  13
ATOM     13  C   UNL d   1       8.040  22.291  23.567  0.00  0.00     0.050 C 
BRANCH  13  14
ATOM     14  C   UNL d   1       8.859  21.138  23.068  0.00  0.00    -0.030 A 
ATOM     15  C   UNL d   1      10.239  21.111  23.023  0.00  0.00     0.096 A 
ATOM     16  N   UNL d   1      10.638  19.860  22.654  0.00  0.00    -0.365 N 
ATOM     17  H   UNL d   1      11.590  19.523  22.681  0.00  0.00     0.165 HD
ATOM     18  C   UNL d   1       9.548  19.078  22.379  0.00  0.00     0.042 A 
ATOM     19  C   UNL d   1       9.496  17.746  21.963  0.00  0.00     0.030 A 
ATOM     20  C   UNL d   1       8.417  19.874  22.565  0.00  0.00    -0.002 A 
ATOM     21  C   UNL d   1       8.243  17.240  21.618  0.00  0.00     0.002 A 
ATOM     22  C   UNL d   1       7.093  18.019  21.752  0.00  0.00     0.001 A 
ATOM     23  C   UNL d   1       7.160  19.321  22.260  0.00  0.00     0.014 A 
ENDBRANCH  13  14
ENDBRANCH   1  13
TORSDOF 5
ENDMDL
