MODEL 1
REMARK VINA RESULT:      -9.4      0.000      0.000
REMARK  2 active torsions:
REMARK  status: ('A' for Active; 'I' for Inactive)
REMARK    1  A    between atoms: C_6  and  C_7 
REMARK       I    between atoms: C_7  and  N_9 
REMARK    2  A    between atoms: C_19  and  C_22 
ROOT
ATOM      1  C   UNL d   1      17.132  34.395  92.530  0.00  0.00     0.256 C 
ATOM      2  O   UNL d   1      16.838  33.255  92.796  0.00  0.00    -0.267 OA
ATOM      3  N   UNL d   1      16.796  35.590  93.589  0.00  0.00    -0.321 N 
ATOM      4  H   UNL d   1      16.985  36.540  93.287  0.00  0.00     0.169 HD
ATOM      5  C   UNL d   1      16.275  35.377  94.755  0.00  0.00     0.064 C 
ATOM      6  C   UNL d   1      15.859  33.995  95.157  0.00  0.00     0.032 C 
ATOM      7  C   UNL d   1      15.181  33.763  96.273  0.00  0.00     0.005 C 
ATOM      8  C   UNL d   1      14.754  34.810  97.115  0.00  0.00     0.031 C 
ATOM      9  C   UNL d   1      14.996  36.090  96.861  0.00  0.00     0.059 C 
ATOM     10  C   UNL d   1      15.914  36.500  95.784  0.00  0.00     0.083 C 
ATOM     11  N   UNL d   1      16.287  37.773  95.872  0.00  0.00    -0.358 N 
ATOM     12  HN  UNL d   1      17.076  38.260  95.447  1.00  0.00     0.162 HD
ATOM     13  C   UNL d   1      15.130  38.321  96.845  0.00  0.00     0.292 C 
ATOM     14  N   UNL d   1      14.545  37.155  97.488  0.00  0.00    -0.360 N 
ATOM     15  HN  UNL d   1      13.902  37.162  98.281  1.00  0.00     0.162 HD
ENDROOT
BRANCH   1  16
ATOM     16  C   UNL d   1      17.774  34.646  91.226  0.00  0.00     0.032 A 
ATOM     17  C   UNL d   1      19.003  35.353  91.208  0.00  0.00     0.018 A 
ATOM     18  C   UNL d   1      19.675  35.566  90.003  0.00  0.00     0.025 A 
ATOM     19  C   UNL d   1      19.185  34.968  88.847  0.00  0.00     0.034 A 
ATOM     20  C   UNL d   1      17.967  34.285  88.865  0.00  0.00     0.025 A 
ATOM     21 CL   UNL d   1      20.091  35.041  87.392  0.00  0.00    -0.084 Cl
ATOM     22  C   UNL d   1      17.227  34.181  90.041  0.00  0.00     0.018 A 
ENDBRANCH   1  16
BRANCH  13  23
ATOM     23  C   UNL d   1      15.062  39.496  97.918  0.00  0.00     0.425 C 
ATOM     24  F   UNL d   1      14.937  38.898  99.162  0.00  0.00    -0.167 F 
ATOM     25  F   UNL d   1      16.157  40.284  98.017  0.00  0.00    -0.167 F 
ATOM     26  F   UNL d   1      13.976  40.295  97.824  0.00  0.00    -0.167 F 
ENDBRANCH  13  23
TORSDOF 2
ENDMDL
