MODEL 1
REMARK VINA RESULT:      -9.2      0.000      0.000
REMARK  6 active torsions:
REMARK  status: ('A' for Active; 'I' for Inactive)
REMARK    1  A    between atoms: C3_3  and  C13_14 
REMARK    2  A    between atoms: C6_6  and  C7_7 
REMARK    3  A    between atoms: C7_7  and  N1_8 
REMARK    4  A    between atoms: C14_15  and  C21_25 
REMARK    5  A    between atoms: C17_19  and  O2_24 
REMARK    6  A    between atoms: C24_28  and  O3_31 
ROOT
ATOM      1  C13 <0> d          31.892  -0.112  26.191  0.00  0.00     0.180 C 
ATOM      2  C14 <0> d          30.395   0.191  26.373  0.00  0.00     0.119 C 
ATOM      3  S1  <0> d          30.271   1.558  27.567  0.00  0.00    -0.114 SA
ATOM      4  C15 <0> d          31.444   1.099  28.804  0.00  0.00     0.037 A 
ATOM      5  C16 <0> d          31.433   1.761  30.025  0.00  0.00     0.057 A 
ATOM      6  C17 <0> d          32.349   1.424  31.008  0.00  0.00     0.067 A 
ATOM      7  C18 <0> d          33.279   0.423  30.766  0.00  0.00     0.039 A 
ATOM      8  C19 <0> d          33.289  -0.237  29.554  0.00  0.00     0.041 A 
ATOM      9  C20 <0> d          32.369   0.089  28.561  0.00  0.00     0.086 A 
ATOM     10  O1  <0> d          32.415  -0.621  27.408  0.00  0.00    -0.338 OA
ENDROOT
BRANCH   1  11
ATOM     11  C3  <0> d          32.071  -1.135  25.099  0.00  0.00    -0.028 A 
ATOM     12  C2  <0> d          31.426  -0.972  23.887  0.00  0.00     0.010 A 
ATOM     13  C1  <0> d          31.590  -1.910  22.885  0.00  0.00     0.009 A 
ATOM     14  C6  <0> d          32.399  -3.012  23.096  0.00  0.00    -0.033 A 
ATOM     15  C5  <0> d          33.042  -3.176  24.309  0.00  0.00     0.009 A 
ATOM     16  C4  <0> d          32.878  -2.238  25.310  0.00  0.00     0.010 A 
BRANCH  14  17
ATOM     17  C7  <0> d          32.577  -4.036  22.004  0.00  0.00     0.273 C 
BRANCH  17  18
ATOM     18  N1  <0> d          32.351  -3.401  20.697  0.00  0.00    -0.067 N 
ATOM     19  C12 <0> d          33.360  -3.877  19.744  0.00  0.00     0.235 C 
ATOM     20  C11 <0> d          33.179  -3.160  18.404  0.00  0.00     0.028 C 
ATOM     21  C10 <0> d          31.779  -3.455  17.859  0.00  0.00     0.003 C 
ATOM     22  C9  <0> d          30.736  -3.024  18.894  0.00  0.00     0.028 C 
ATOM     23  C8  <0> d          31.008  -3.746  20.214  0.00  0.00     0.235 C 
ATOM     24  H28 <0> d          32.425  -2.400  20.793  0.00  0.00     0.280 HD
ENDBRANCH  17  18
ENDBRANCH  14  17
ENDBRANCH   1  11
BRANCH   2  25
ATOM     25  C21 <0> d          29.686  -1.028  26.907  0.00  0.00    -0.041 A 
ATOM     26  C26 <0> d          28.458  -1.394  26.388  0.00  0.00     0.011 A 
ATOM     27  C25 <0> d          27.809  -2.513  26.873  0.00  0.00     0.037 A 
ATOM     28  C24 <0> d          28.385  -3.264  27.887  0.00  0.00     0.065 A 
ATOM     29  C23 <0> d          29.615  -2.890  28.410  0.00  0.00     0.037 A 
ATOM     30  C22 <0> d          30.262  -1.773  27.919  0.00  0.00     0.011 A 
BRANCH  28  31
ATOM     31  O3  <0> d          27.746  -4.362  28.368  0.00  0.00    -0.361 OA
ATOM     32  H27 <0> d          27.087  -4.168  29.049  0.00  0.00     0.217 HD
ENDBRANCH  28  31
ENDBRANCH   2  25
BRANCH   6  33
ATOM     33  O2  <0> d          32.337   2.071  32.204  0.00  0.00    -0.361 OA
ATOM     34  H22 <0> d          31.691   1.722  32.833  0.00  0.00     0.217 HD
ENDBRANCH   6  33
TORSDOF 6
ENDMDL
