REMARK  5 active torsions:
REMARK  status: ('A' for Active; 'I' for Inactive)
REMARK    1  A    between atoms: C_2  and  C_3 
REMARK       I    between atoms: C_2  and  N_15 
REMARK    2  A    between atoms: C_3  and  C_4 
REMARK    3  A    between atoms: C_4  and  C_5 
REMARK    4  A    between atoms: N_15  and  C_16 
REMARK    5  A    between atoms: C_16  and  C_17 
ROOT
ATOM      1  C   UNL d   1       3.062  -1.313  -0.181  0.00  0.00     0.107 C 
ENDROOT
BRANCH   1   2
ATOM      2  C   UNL d   1       2.154  -0.112   0.068  0.00  0.00     0.217 C 
ATOM      3  O   UNL d   1       0.928  -0.179  -0.034  0.00  0.00    -0.274 OA
ATOM      4  N   UNL d   1       2.803   1.022   0.456  0.00  0.00    -0.361 N 
ATOM      5  H   UNL d   1       3.814   0.972   0.457  0.00  0.00     0.162 HD
BRANCH   4   6
ATOM      6  C   UNL d   1       2.220   2.347   0.593  0.00  0.00     0.129 C 
BRANCH   6   7
ATOM      7  C   UNL d   1       2.667   2.998   1.920  0.00  0.00     0.027 C 
ATOM      8  C   UNL d   1       4.135   2.687   2.273  0.00  0.00     0.010 C 
ATOM      9  C   UNL d   1       5.031   3.356   1.249  0.00  0.00     0.027 C 
ATOM     10  C   UNL d   1       4.807   4.850   1.225  0.00  0.00     0.167 C 
ATOM     11  O   UNL d   1       3.434   5.124   0.931  0.00  0.00    -0.391 OA
ATOM     12  C   UNL d   1       2.523   4.526   1.864  0.00  0.00     0.173 C 
ENDBRANCH   6   7
ENDBRANCH   4   6
ENDBRANCH   1   2
BRANCH   1  13
ATOM     13  C   UNL d   1       3.948  -1.210  -1.430  0.00  0.00     0.050 C 
BRANCH  13  14
ATOM     14  C   UNL d   1       5.002  -0.146  -1.365  0.00  0.00    -0.030 A 
ATOM     15  C   UNL d   1       4.792   1.192  -1.637  0.00  0.00     0.096 A 
ATOM     16  N   UNL d   1       5.929   1.881  -1.336  0.00  0.00    -0.365 N 
ATOM     17  H   UNL d   1       6.006   2.888  -1.304  0.00  0.00     0.165 HD
ATOM     18  C   UNL d   1       6.915   1.017  -0.941  0.00  0.00     0.042 A 
ATOM     19  C   UNL d   1       8.229   1.290  -0.553  0.00  0.00     0.030 A 
ATOM     20  C   UNL d   1       6.383  -0.271  -1.014  0.00  0.00    -0.002 A 
ATOM     21  C   UNL d   1       9.064   0.195  -0.336  0.00  0.00     0.002 A 
ATOM     22  C   UNL d   1       8.579  -1.109  -0.439  0.00  0.00     0.001 A 
ATOM     23  C   UNL d   1       7.234  -1.356  -0.738  0.00  0.00     0.014 A 
ENDBRANCH  13  14
ENDBRANCH   1  13
TORSDOF 5
