REMARK  6 active torsions:
REMARK  status: ('A' for Active; 'I' for Inactive)
REMARK    1  A    between atoms: C_2  and  C_3 
REMARK    2  A    between atoms: C_3  and  C_5 
REMARK    3  A    between atoms: C_8  and  N_11 
REMARK    4  A    between atoms: C_12  and  N_11 
REMARK    5  A    between atoms: N_14  and  S_16 
REMARK    6  A    between atoms: S_16  and  C_19 
ROOT
ATOM      1  C   UNL d   1       7.113   5.384  -2.232  0.00  0.00     0.223 C 
ATOM      2  C   UNL d   1       6.104   6.476  -2.306  0.00  0.00     0.108 C 
ATOM      3  N   UNL d   1       6.601   7.649  -2.063  0.00  0.00    -0.271 N 
ATOM      4  HN  UNL d   1       7.339   8.052  -2.640  1.00  0.00     0.179 HD
ATOM      5  N   UNL d   1       4.549   5.415  -1.925  0.00  0.00    -0.244 NA
ATOM      6  H   UNL d   1       4.798   4.507  -2.385  0.00  0.00     0.135 HD
ATOM      7  C   UNL d   1       4.361   5.165  -0.683  0.00  0.00     0.035 C 
ATOM      8  C   UNL d   1       3.114   4.737  -0.021  0.00  0.00     0.026 C 
ATOM      9  C   UNL d   1       2.461   5.688   0.663  0.00  0.00     0.002 C 
ATOM     10  C   UNL d   1       3.189   6.871   1.001  0.00  0.00     0.002 C 
ATOM     11  C   UNL d   1       4.555   6.813   1.038  0.00  0.00     0.025 C 
ATOM     12  C   UNL d   1       5.479   5.578   0.170  0.00  0.00     0.032 C 
ATOM     13  N   UNL d   1       6.691   5.299  -0.469  0.00  0.00    -0.264 NA
ATOM     14  H   UNL d   1       7.162   4.382  -0.416  0.00  0.00     0.130 HD
ENDROOT
BRANCH   1  15
ATOM     15  N   UNL d   1       6.588   4.584  -3.381  0.00  0.00    -0.367 N 
ATOM     16  H   UNL d   1       6.691   5.060  -4.308  0.00  0.00     0.161 HD
BRANCH  15  17
ATOM     17  C   UNL d   1       6.455   3.243  -3.641  0.00  0.00     0.029 C 
ATOM     18  C   UNL d   1       6.717   2.298  -2.678  0.00  0.00     0.029 C 
ATOM     19  C   UNL d   1       6.247   0.993  -2.802  0.00  0.00     0.010 C 
ATOM     20  C   UNL d   1       5.459   0.587  -3.883  0.00  0.00    -0.054 C 
ATOM     21  C   UNL d   1       5.354   1.504  -4.928  0.00  0.00     0.010 C 
ATOM     22  C   UNL d   1       5.838   2.808  -4.823  0.00  0.00     0.029 C 
BRANCH  20  23
ATOM     23  C   UNL d   1       4.757  -0.776  -3.874  0.00  0.00     0.014 C 
ATOM     24  C   UNL d   1       5.654  -1.855  -3.230  0.00  0.00     0.015 C 
BRANCH  23  25
ATOM     25  C   UNL d   1       4.288  -1.285  -5.258  0.00  0.00     0.004 C 
ATOM     26  C   UNL d   1       3.128  -0.515  -5.901  0.00  0.00     0.006 C 
ENDBRANCH  23  25
ENDBRANCH  20  23
ENDBRANCH  15  17
ENDBRANCH   1  15
BRANCH   3  27
ATOM     27  S   UNL d   1       5.997   8.419  -0.826  0.00  0.00     0.263 S 
ATOM     28  O   UNL d   1       4.561   8.351  -1.098  0.00  0.00    -0.200 OA
ATOM     29  O   UNL d   1       6.663   7.803   0.293  0.00  0.00    -0.200 OA
BRANCH  27  30
ATOM     30  C   UNL d   1       6.423  10.022  -0.550  0.00  0.00     0.080 C 
ATOM     31  C   UNL d   1       5.644  10.815   0.304  0.00  0.00     0.028 C 
ATOM     32  C   UNL d   1       5.970  12.148   0.359  0.00  0.00     0.044 C 
ATOM     33  C   UNL d   1       7.141  12.567  -0.273  0.00  0.00     0.116 C 
ATOM     34  C   UNL d   1       8.024  11.679  -0.890  0.00  0.00     0.044 C 
ATOM     35  F   UNL d   1       7.425  13.868  -0.312  0.00  0.00    -0.206 F 
ATOM     36  C   UNL d   1       7.644  10.382  -1.069  0.00  0.00     0.028 C 
ENDBRANCH  27  30
ENDBRANCH   3  27
TORSDOF 6
