REMARK  6 active torsions:
REMARK  status: ('A' for Active; 'I' for Inactive)
REMARK    1  A    between atoms: C_6  and  N_7 
REMARK    2  A    between atoms: N_10  and  C_11 
REMARK    3  A    between atoms: C_11  and  C_12 
REMARK    4  A    between atoms: C_12  and  C_13 
REMARK    5  A    between atoms: C_16  and  N_17 
REMARK       I    between atoms: N_17  and  C_18 
REMARK    6  A    between atoms: C_18  and  C_20 
ROOT
ATOM      1  C   UNL d   1       7.364  -3.650   2.220  0.00  0.00    -0.013 C 
ATOM      2  C   UNL d   1       6.919  -2.081   2.326  0.00  0.00     0.007 C 
ATOM      3  C   UNL d   1       6.083  -1.511   1.165  0.00  0.00     0.025 C 
ATOM      4  C   UNL d   1       4.642  -2.556   0.234  0.00  0.00     0.084 C 
ATOM      5  C   UNL d   1       4.447  -4.250   0.758  0.00  0.00     0.025 C 
ATOM      6  C   UNL d   1       5.800  -4.690   2.050  0.00  0.00     0.007 C 
ENDROOT
BRANCH   1   7
ATOM      7  C   UNL d   1       8.675  -3.868   0.941  0.00  0.00     0.034 C 
BRANCH   7   8
ATOM      8  C   UNL d   1       8.409  -5.016  -0.194  0.00  0.00     0.273 C 
BRANCH   8   9
ATOM      9  N   UNL d   1       7.320  -5.124  -1.228  0.00  0.00     0.091 N 
ATOM     10  C   UNL d   1       6.179  -5.226  -0.442  0.00  0.00     0.292 C 
ATOM     11  C   UNL d   1       6.323  -3.517  -0.004  0.00  0.00     0.153 C 
ATOM     12  N   UNL d   1       6.167  -2.096  -1.030  0.00  0.00    -0.376 N 
ATOM     13  C   UNL d   1       7.173  -2.372  -1.956  0.00  0.00     0.153 C 
ATOM     14  C   UNL d   1       6.976  -3.960  -2.224  0.00  0.00     0.292 C 
BRANCH  12  15
ATOM     15  C   UNL d   1       5.266  -0.712  -0.819  0.00  0.00     0.053 C 
ATOM     16  C   UNL d   1       5.807   0.555  -0.403  0.00  0.00     0.031 C 
ATOM     17  C   UNL d   1       4.954   1.597   0.026  0.00  0.00     0.004 C 
ATOM     18  C   UNL d   1       3.722   1.692  -0.573  0.00  0.00     0.026 C 
ATOM     19  C   UNL d   1       3.111   0.522  -1.012  0.00  0.00     0.058 C 
ATOM     20 CL   UNL d   1       1.355   0.992  -1.740  0.00  0.00    -0.082 Cl
ATOM     21  C   UNL d   1       3.708  -0.817  -0.529  0.00  0.00     0.082 C 
ATOM     22 CL   UNL d   1       2.592  -3.051  -0.508  0.00  0.00    -0.080 Cl
ENDBRANCH  12  15
ENDBRANCH   8   9
ENDBRANCH   7   8
ENDBRANCH   1   7
BRANCH   4  23
ATOM     23  N   UNL d   1       4.098  -2.356  -1.690  0.00  0.00    -0.356 N 
ATOM     24  C   UNL d   1       2.465  -1.526  -1.957  0.00  0.00     0.226 C 
ATOM     25  O   UNL d   1       2.213  -1.131  -3.054  0.00  0.00    -0.273 OA
ATOM     26  H   UNL d   1       4.804  -2.116  -2.371  0.00  0.00     0.162 HD
BRANCH  24  27
ATOM     27  C   UNL d   1       1.633  -1.181  -0.043  0.00  0.00     0.042 C 
ATOM     28  C   UNL d   1       2.312  -2.038   1.548  0.00  0.00     0.024 C 
ATOM     29  C   UNL d   1       1.501  -2.083   2.742  0.00  0.00    -0.013 C 
ATOM     30  C   UNL d   1       1.562  -0.644   3.171  0.00  0.00     0.009 C 
ATOM     31  C   UNL d   1       0.236  -2.666   2.179  0.00  0.00     0.009 C 
ATOM     32  C   UNL d   1       0.887   0.203   2.112  0.00  0.00    -0.013 C 
ATOM     33  C   UNL d   1      -0.447  -0.326   1.613  0.00  0.00     0.009 C 
ATOM     34  C   UNL d   1       1.769   0.213   0.927  0.00  0.00     0.024 C 
ATOM     35  C   UNL d   1      -0.417  -1.769   1.100  0.00  0.00    -0.013 C 
ATOM     36  C   UNL d   1       0.274  -1.827  -0.232  0.00  0.00     0.024 C 
ENDBRANCH  24  27
ENDBRANCH   4  23
TORSDOF 6
