MODEL 1
REMARK VINA RESULT:      -8.8      0.000      0.000
REMARK  6 active torsions:
REMARK  status: ('A' for Active; 'I' for Inactive)
REMARK    1  A    between atoms: C_2  and  C_3 
REMARK    2  A    between atoms: C_3  and  C_5 
REMARK    3  A    between atoms: C_8  and  N_11 
REMARK    4  A    between atoms: C_12  and  N_11 
REMARK    5  A    between atoms: N_14  and  S_16 
REMARK    6  A    between atoms: S_16  and  C_19 
ROOT
ATOM      1  C   UNL d   1      33.837  -4.249  20.101  0.00  0.00     0.223 C 
ATOM      2  C   UNL d   1      33.300  -3.953  18.745  0.00  0.00     0.108 C 
ATOM      3  N   UNL d   1      33.278  -4.990  17.966  0.00  0.00    -0.271 N 
ATOM      4  HN  UNL d   1      32.734  -5.822  18.192  1.00  0.00     0.179 HD
ATOM      5  N   UNL d   1      33.715  -2.078  18.708  0.00  0.00    -0.244 NA
ATOM      6  H   UNL d   1      33.575  -1.813  19.712  0.00  0.00     0.135 HD
ATOM      7  C   UNL d   1      34.931  -1.803  18.416  0.00  0.00     0.035 C 
ATOM      8  C   UNL d   1      35.482  -0.523  17.930  0.00  0.00     0.026 C 
ATOM      9  C   UNL d   1      35.759  -0.468  16.619  0.00  0.00     0.002 C 
ATOM     10  C   UNL d   1      35.860  -1.709  15.916  0.00  0.00     0.002 C 
ATOM     11  C   UNL d   1      36.126  -2.846  16.627  0.00  0.00     0.025 C 
ATOM     12  C   UNL d   1      35.798  -2.983  18.361  0.00  0.00     0.032 C 
ATOM     13  N   UNL d   1      35.463  -3.866  19.392  0.00  0.00    -0.264 NA
ATOM     14  H   UNL d   1      35.846  -3.793  20.348  0.00  0.00     0.130 HD
ENDROOT
BRANCH   1  15
ATOM     15  N   UNL d   1      32.892  -3.370  20.857  0.00  0.00    -0.367 N 
ATOM     16  H   UNL d   1      32.000  -3.171  20.346  0.00  0.00     0.161 HD
BRANCH  15  17
ATOM     17  C   UNL d   1      32.640  -3.145  22.187  0.00  0.00     0.029 C 
ATOM     18  C   UNL d   1      33.486  -3.611  23.165  0.00  0.00     0.029 C 
ATOM     19  C   UNL d   1      33.449  -3.094  24.457  0.00  0.00     0.010 C 
ATOM     20  C   UNL d   1      32.583  -2.057  24.817  0.00  0.00    -0.054 C 
ATOM     21  C   UNL d   1      31.618  -1.723  23.868  0.00  0.00     0.010 C 
ATOM     22  C   UNL d   1      31.634  -2.249  22.577  0.00  0.00     0.029 C 
BRANCH  20  23
ATOM     23  C   UNL d   1      32.730  -1.345  26.168  0.00  0.00     0.014 C 
ATOM     24  C   UNL d   1      32.174  -2.217  27.314  0.00  0.00     0.015 C 
BRANCH  23  25
ATOM     25  C   UNL d   1      32.076   0.055  26.249  0.00  0.00     0.004 C 
ATOM     26  C   UNL d   1      33.040   1.246  26.311  0.00  0.00     0.006 C 
ENDBRANCH  23  25
ENDBRANCH  20  23
ENDBRANCH  15  17
ENDBRANCH   1  15
BRANCH   3  27
ATOM     27  S   UNL d   1      34.136  -4.889  16.647  0.00  0.00     0.263 S 
ATOM     28  O   UNL d   1      33.774  -3.562  16.149  0.00  0.00    -0.200 OA
ATOM     29  O   UNL d   1      35.450  -5.284  17.087  0.00  0.00    -0.200 OA
BRANCH  27  30
ATOM     30  C   UNL d   1      33.911  -6.012  15.415  0.00  0.00     0.080 C 
ATOM     31  C   UNL d   1      33.147  -7.163  15.650  0.00  0.00     0.028 C 
ATOM     32  C   UNL d   1      33.136  -8.099  14.645  0.00  0.00     0.044 C 
ATOM     33  C   UNL d   1      33.712  -7.759  13.421  0.00  0.00     0.116 C 
ATOM     34  C   UNL d   1      34.229  -6.489  13.158  0.00  0.00     0.044 C 
ATOM     35  F   UNL d   1      33.795  -8.684  12.466  0.00  0.00    -0.206 F 
ATOM     36  C   UNL d   1      34.369  -5.603  14.185  0.00  0.00     0.028 C 
ENDBRANCH  27  30
ENDBRANCH   3  27
TORSDOF 6
ENDMDL
