@<TRIPOS>MOLECULE
*****
 61 64 0 0 0
SMALL
GASTEIGER

@<TRIPOS>ATOM
      1 C          -6.0407   -6.4730    1.7025 C.3     1  UNL1       -0.0383
      2 C          -4.8076   -6.1337    0.9220 C.ar    1  UNL1       -0.0323
      3 C          -4.3438   -4.8146    0.8127 C.ar    1  UNL1       -0.0557
      4 C          -3.1177   -4.5610    0.2018 C.ar    1  UNL1       -0.0386
      5 C          -2.3839   -5.6451   -0.3011 C.ar    1  UNL1        0.0585
      6 N          -2.8490   -6.9208   -0.2628 N.ar    1  UNL1       -0.2580
      7 C          -4.0104   -7.1430    0.3904 C.ar    1  UNL1        0.0308
      8 C          -0.9356   -5.4374   -0.7657 C.3     1  UNL1        0.0544
      9 H          -0.5876   -4.4304   -0.4910 H       1  UNL1        0.0529
     10 C          -1.1134   -5.5332   -2.2834 C.3     1  UNL1       -0.0061
     11 C           0.1358   -5.2493   -3.0299 C.ar    1  UNL1       -0.0385
     12 C           0.6127   -3.9460   -3.3581 C.ar    1  UNL1       -0.0515
     13 C           1.8026   -3.9996   -4.0451 C.ar    1  UNL1       -0.0241
     14 S           2.3504   -5.6035   -4.2748 S.2     1  UNL1       -0.1048
     15 C           0.9957   -6.2379   -3.4633 C.ar    1  UNL1       -0.0211
     16 N           0.0935   -6.4130   -0.2917 N.3     1  UNL1       -0.3037
     17 C           0.5027   -6.3477    1.1042 C.3     1  UNL1        0.0238
     18 C          -0.6317   -6.7583    1.9649 C.ar    1  UNL1       -0.0084
     19 C          -1.6599   -5.8962    2.2937 C.ar    1  UNL1        0.0103
     20 N          -2.5195   -6.4478    3.1853 N.ar    1  UNL1       -0.3412
     21 C          -2.3000   -7.8035    3.1434 C.ar    1  UNL1        0.0495
     22 C          -1.1082   -8.0039    2.4089 C.ar    1  UNL1        0.0042
     23 C          -0.6641   -9.3071    2.1437 C.ar    1  UNL1       -0.0523
     24 C          -1.4328  -10.3691    2.6032 C.ar    1  UNL1       -0.0611
     25 C          -2.6116  -10.1511    3.3175 C.ar    1  UNL1       -0.0598
     26 C          -3.0693   -8.8646    3.6074 C.ar    1  UNL1       -0.0376
     27 C          -3.5508   -5.6945    3.8910 C.3     1  UNL1        0.0633
     28 C          -3.1197   -4.6812    4.9831 C.3     1  UNL1       -0.0140
     29 N          -2.2442   -3.4983    4.5075 N.4     1  UNL1        0.2322
     30 H          -2.7246   -3.0478    3.7116 H       1  UNL1        0.2028
     31 C          -1.9663   -2.4725    5.5505 C.3     1  UNL1       -0.0433
     32 C          -0.8729   -3.9087    4.1101 C.3     1  UNL1       -0.0433
     33 H          -5.8037   -6.9898    2.6405 H       1  UNL1        0.0278
     34 H          -6.6867   -7.1172    1.1038 H       1  UNL1        0.0278
     35 H          -6.5975   -5.5661    1.9595 H       1  UNL1        0.0278
     36 H          -4.8515   -4.0073    1.3368 H       1  UNL1        0.0621
     37 H          -2.6504   -3.5832    0.3036 H       1  UNL1        0.0636
     38 H          -4.2213   -8.1942    0.5806 H       1  UNL1        0.0832
     39 H          -1.4818   -6.5348   -2.5477 H       1  UNL1        0.0332
     40 H          -1.8939   -4.8292   -2.6055 H       1  UNL1        0.0332
     41 H           0.1095   -3.0206   -3.1033 H       1  UNL1        0.0626
     42 H           2.3844   -3.1737   -4.4243 H       1  UNL1        0.0693
     43 H           0.8805   -7.3047   -3.3164 H       1  UNL1        0.0696
     44 H          -0.2457   -7.3531   -0.4917 H       1  UNL1        0.1229
     45 H           1.3753   -6.9907    1.2892 H       1  UNL1        0.0474
     46 H           0.8376   -5.3316    1.3631 H       1  UNL1        0.0474
     47 H          -1.7147   -4.8755    1.9879 H       1  UNL1        0.0812
     48 H           0.2152   -9.4653    1.5283 H       1  UNL1        0.0624
     49 H          -1.1133  -11.3800    2.3688 H       1  UNL1        0.0618
     50 H          -3.2025  -11.0030    3.6378 H       1  UNL1        0.0618
     51 H          -4.0189   -8.7117    4.1088 H       1  UNL1        0.0638
     52 H          -4.1332   -5.1223    3.1772 H       1  UNL1        0.0545
     53 H          -4.2485   -6.4184    4.3248 H       1  UNL1        0.0545
     54 H          -4.0336   -4.2174    5.3808 H       1  UNL1        0.0832
     55 H          -2.5818   -5.1846    5.7858 H       1  UNL1        0.0832
     56 H          -1.4054   -2.9793    6.3415 H       1  UNL1        0.0777
     57 H          -1.3394   -1.7081    5.0750 H       1  UNL1        0.0777
     58 H          -2.9006   -2.0526    5.9073 H       1  UNL1        0.0777
     59 H          -0.2482   -4.2447    4.9341 H       1  UNL1        0.0777
     60 H          -1.0225   -4.8421    3.7125 H       1  UNL1        0.0777
     61 H          -0.4577   -3.2516    3.3428 H       1  UNL1        0.0777
@<TRIPOS>BOND
     1     1     2    1
     2     2     3   ar
     3     3     4   ar
     4     4     5   ar
     5     5     6   ar
     6     6     7   ar
     7     2     7   ar
     8     8    10    1
     9    10    11    1
    10    11    12   ar
    11    12    13   ar
    12    13    14   ar
    13    14    15   ar
    14    11    15   ar
    15     8    16    1
    16    16    17    1
    17    17    18    1
    18    18    19   ar
    19    19    20   ar
    20    20    21   ar
    21    21    22   ar
    22    18    22   ar
    23    22    23   ar
    24    23    24   ar
    25    24    25   ar
    26    25    26   ar
    27    21    26   ar
    28    20    27    1
    29    27    28    1
    30    28    29    1
    31    29    30    1
    32    29    31    1
    33    29    32    1
    34     1    33    1
    35     1    34    1
    36     1    35    1
    37     3    36    1
    38     4    37    1
    39     7    38    1
    40    10    39    1
    41    10    40    1
    42    12    41    1
    43    13    42    1
    44    15    43    1
    45    16    44    1
    46    17    45    1
    47    17    46    1
    48    19    47    1
    49    23    48    1
    50    24    49    1
    51    25    50    1
    52    26    51    1
    53    27    52    1
    54    27    53    1
    55    28    54    1
    56    28    55    1
    57    31    56    1
    58    31    57    1
    59    31    58    1
    60    32    59    1
    61    32    60    1
    62    32    61    1
    63     8     9    1
    64     8     5    1
