MODEL 1
REMARK VINA RESULT:      -8.9      0.000      0.000
REMARK  4 active torsions:
REMARK  status: ('A' for Active; 'I' for Inactive)
REMARK    1  A    between atoms: N_2  and  C_3 
REMARK       I    between atoms: N_2  and  C_13 
REMARK    2  A    between atoms: C_3  and  C_4 
REMARK    3  A    between atoms: C_13  and  C_15 
REMARK    4  A    between atoms: C_20  and  N_21 
ROOT
ATOM      1  C   UNL d   1       7.396  23.127  24.780  0.00  0.00     0.037 C 
ATOM      2  C   UNL d   1       7.638  23.168  26.130  0.00  0.00     0.034 C 
ATOM      3  C   UNL d   1       8.843  22.699  26.629  0.00  0.00     0.090 C 
ATOM      4  N   UNL d   1       9.749  22.068  25.889  0.00  0.00    -0.351 N 
ATOM      5  HN  UNL d   1      10.677  21.836  26.242  1.00  0.00     0.166 HD
ATOM      6  C   UNL d   1       9.356  21.759  24.635  0.00  0.00     0.129 C 
ATOM      7  C   UNL d   1       8.168  22.229  24.051  0.00  0.00     0.067 C 
ENDROOT
BRANCH   1   8
ATOM      8  C   UNL d   1       6.245  23.901  24.216  0.00  0.00     0.253 C 
ATOM      9  N   UNL d   1       6.130  25.315  24.410  0.00  0.00    -0.348 N 
ATOM     10  C   UNL d   1       5.002  25.940  23.706  0.00  0.00     0.153 C 
ATOM     11  O   UNL d   1       5.418  23.260  23.590  0.00  0.00    -0.267 OA
BRANCH   9  12
ATOM     12  C   UNL d   1       7.145  26.249  24.986  0.00  0.00     0.164 C 
BRANCH  12  13
ATOM     13  C   UNL d   1       6.762  26.881  26.323  0.00  0.00    -0.037 C 
ATOM     14  C   UNL d   1       7.014  26.214  27.551  0.00  0.00     0.012 C 
ATOM     15  C   UNL d   1       6.313  26.569  28.727  0.00  0.00     0.040 C 
ATOM     16  C   UNL d   1       5.514  27.686  28.692  0.00  0.00     0.105 C 
ATOM     17  C   UNL d   1       5.426  28.450  27.557  0.00  0.00     0.105 C 
ATOM     18  O   UNL d   1       4.736  28.157  29.703  0.00  0.00    -0.323 OA
ATOM     19  C   UNL d   1       6.016  28.069  26.362  0.00  0.00     0.048 C 
ATOM     20  O   UNL d   1       4.660  29.558  27.746  0.00  0.00    -0.323 OA
ATOM     21  C   UNL d   1       4.303  29.413  29.138  0.00  0.00     0.352 C 
ENDBRANCH  12  13
ENDBRANCH   9  12
ENDBRANCH   1   8
BRANCH   6  22
ATOM     22  N   UNL d   1      10.220  20.908  23.921  0.00  0.00    -0.235 N 
ATOM     23  C   UNL d   1       9.875  19.777  23.221  0.00  0.00     0.209 A 
ATOM     24  N   UNL d   1      10.947  19.231  22.694  0.00  0.00    -0.346 N 
ATOM     25  C   UNL d   1      11.937  20.072  23.107  0.00  0.00     0.199 A 
ATOM     26  HN  UNL d   1      11.021  18.390  22.121  1.00  0.00     0.167 HD
ATOM     27  N   UNL d   1      11.552  21.106  23.851  0.00  0.00    -0.287 N 
ATOM     28  HN  UNL d   1      12.115  21.852  24.260  1.00  0.00     0.188 HD
ENDBRANCH   6  22
TORSDOF 4
ENDMDL
MODEL 2
REMARK VINA RESULT:      -8.7      4.493      7.163
REMARK  4 active torsions:
REMARK  status: ('A' for Active; 'I' for Inactive)
REMARK    1  A    between atoms: N_2  and  C_3 
REMARK       I    between atoms: N_2  and  C_13 
REMARK    2  A    between atoms: C_3  and  C_4 
REMARK    3  A    between atoms: C_13  and  C_15 
REMARK    4  A    between atoms: C_20  and  N_21 
ROOT
ATOM      1  C   UNL d   1       1.476  28.096  26.886  0.00  0.00     0.037 C 
ATOM      2  C   UNL d   1       0.828  28.972  26.052  0.00  0.00     0.034 C 
ATOM      3  C   UNL d   1       0.990  28.864  24.679  0.00  0.00     0.090 C 
ATOM      4  N   UNL d   1       1.860  28.038  24.105  0.00  0.00    -0.351 N 
ATOM      5  HN  UNL d   1       1.884  27.885  23.097  1.00  0.00     0.166 HD
ATOM      6  C   UNL d   1       2.708  27.416  24.950  0.00  0.00     0.129 C 
ATOM      7  C   UNL d   1       2.582  27.449  26.348  0.00  0.00     0.067 C 
ENDROOT
BRANCH   1   8
ATOM      8  C   UNL d   1       1.069  28.016  28.325  0.00  0.00     0.253 C 
ATOM      9  N   UNL d   1       1.808  28.692  29.348  0.00  0.00    -0.348 N 
ATOM     10  C   UNL d   1       1.220  28.599  30.691  0.00  0.00     0.153 C 
ATOM     11  O   UNL d   1       0.081  27.345  28.571  0.00  0.00    -0.267 OA
BRANCH   9  12
ATOM     12  C   UNL d   1       2.911  29.687  29.180  0.00  0.00     0.164 C 
BRANCH  12  13
ATOM     13  C   UNL d   1       4.216  29.122  28.620  0.00  0.00    -0.037 C 
ATOM     14  C   UNL d   1       4.883  29.750  27.535  0.00  0.00     0.012 C 
ATOM     15  C   UNL d   1       5.824  29.041  26.752  0.00  0.00     0.040 C 
ATOM     16  C   UNL d   1       6.202  27.788  27.172  0.00  0.00     0.105 C 
ATOM     17  C   UNL d   1       5.704  27.259  28.336  0.00  0.00     0.105 C 
ATOM     18  O   UNL d   1       7.055  26.943  26.534  0.00  0.00    -0.323 OA
ATOM     19  C   UNL d   1       4.706  27.884  29.065  0.00  0.00     0.048 C 
ATOM     20  O   UNL d   1       6.263  26.054  28.627  0.00  0.00    -0.323 OA
ATOM     21  C   UNL d   1       7.188  25.904  27.528  0.00  0.00     0.352 C 
ENDBRANCH  12  13
ENDBRANCH   9  12
ENDBRANCH   1   8
BRANCH   6  22
ATOM     22  N   UNL d   1       3.764  26.713  24.340  0.00  0.00    -0.235 N 
ATOM     23  C   UNL d   1       3.995  25.359  24.390  0.00  0.00     0.209 A 
ATOM     24  N   UNL d   1       5.082  25.063  23.715  0.00  0.00    -0.346 N 
ATOM     25  C   UNL d   1       5.489  26.285  23.267  0.00  0.00     0.199 A 
ATOM     26  HN  UNL d   1       5.513  24.151  23.564  1.00  0.00     0.167 HD
ATOM     27  N   UNL d   1       4.726  27.319  23.614  0.00  0.00    -0.287 N 
ATOM     28  HN  UNL d   1       4.838  28.307  23.390  1.00  0.00     0.188 HD
ENDBRANCH   6  22
TORSDOF 4
ENDMDL
MODEL 3
REMARK VINA RESULT:      -8.6      3.284      8.517
REMARK  4 active torsions:
REMARK  status: ('A' for Active; 'I' for Inactive)
REMARK    1  A    between atoms: N_2  and  C_3 
REMARK       I    between atoms: N_2  and  C_13 
REMARK    2  A    between atoms: C_3  and  C_4 
REMARK    3  A    between atoms: C_13  and  C_15 
REMARK    4  A    between atoms: C_20  and  N_21 
ROOT
ATOM      1  C   UNL d   1       6.085  26.086  25.476  0.00  0.00     0.037 C 
ATOM      2  C   UNL d   1       7.256  26.363  26.137  0.00  0.00     0.034 C 
ATOM      3  C   UNL d   1       7.282  26.359  27.523  0.00  0.00     0.090 C 
ATOM      4  N   UNL d   1       6.194  26.241  28.279  0.00  0.00    -0.351 N 
ATOM      5  HN  UNL d   1       6.242  26.122  29.290  1.00  0.00     0.166 HD
ATOM      6  C   UNL d   1       5.022  26.288  27.612  0.00  0.00     0.129 C 
ATOM      7  C   UNL d   1       4.918  26.255  26.212  0.00  0.00     0.067 C 
ENDROOT
BRANCH   1   8
ATOM      8  C   UNL d   1       6.123  25.790  24.009  0.00  0.00     0.253 C 
ATOM      9  N   UNL d   1       6.671  24.566  23.508  0.00  0.00    -0.348 N 
ATOM     10  C   UNL d   1       6.537  24.384  22.057  0.00  0.00     0.153 C 
ATOM     11  O   UNL d   1       5.664  26.647  23.273  0.00  0.00    -0.267 OA
BRANCH   9  12
ATOM     12  C   UNL d   1       7.091  23.361  24.287  0.00  0.00     0.164 C 
BRANCH  12  13
ATOM     13  C   UNL d   1       7.575  22.180  23.446  0.00  0.00    -0.037 C 
ATOM     14  C   UNL d   1       6.664  21.215  22.943  0.00  0.00     0.012 C 
ATOM     15  C   UNL d   1       7.112  19.935  22.540  0.00  0.00     0.040 C 
ATOM     16  C   UNL d   1       8.466  19.710  22.485  0.00  0.00     0.105 C 
ATOM     17  C   UNL d   1       9.355  20.712  22.781  0.00  0.00     0.105 C 
ATOM     18  O   UNL d   1       9.081  18.540  22.165  0.00  0.00    -0.323 OA
ATOM     19  C   UNL d   1       8.947  21.939  23.279  0.00  0.00     0.048 C 
ATOM     20  O   UNL d   1      10.644  20.325  22.584  0.00  0.00    -0.323 OA
ATOM     21  C   UNL d   1      10.456  18.976  22.103  0.00  0.00     0.352 C 
ENDBRANCH  12  13
ENDBRANCH   9  12
ENDBRANCH   1   8
BRANCH   6  22
ATOM     22  N   UNL d   1       3.870  26.380  28.416  0.00  0.00    -0.235 N 
ATOM     23  C   UNL d   1       2.640  26.870  28.048  0.00  0.00     0.209 A 
ATOM     24  N   UNL d   1       1.812  26.813  29.065  0.00  0.00    -0.346 N 
ATOM     25  C   UNL d   1       2.590  26.277  30.048  0.00  0.00     0.199 A 
ATOM     26  HN  UNL d   1       0.833  27.098  29.109  1.00  0.00     0.167 HD
ATOM     27  N   UNL d   1       3.846  25.994  29.709  0.00  0.00    -0.287 N 
ATOM     28  HN  UNL d   1       4.591  25.590  30.276  1.00  0.00     0.188 HD
ENDBRANCH   6  22
TORSDOF 4
ENDMDL
