REMARK  10 active torsions:
REMARK  status: ('A' for Active; 'I' for Inactive)
REMARK    1  A    between atoms: N_7  and  C_9 
REMARK    2  A    between atoms: C_9  and  C_10 
REMARK    3  A    between atoms: C_10  and  C_11 
REMARK    4  A    between atoms: C_11  and  N_12 
REMARK       I    between atoms: N_12  and  C_13 
REMARK    5  A    between atoms: C_13  and  C_15 
REMARK    6  A    between atoms: C_15  and  N_16 
REMARK    7  A    between atoms: N_16  and  C_18 
REMARK    8  A    between atoms: C_22  and  N_34 
REMARK    9  A    between atoms: C_23  and  C_28 
REMARK   10  A    between atoms: N_34  and  C_35 
ROOT
ATOM      1  C   UNL d   1       5.527   3.353   3.109  0.00  0.00     0.165 A 
ATOM      2  N   UNL d   1       6.286   3.622   2.095  0.00  0.00    -0.269 N 
ATOM      3  HN  UNL d   1       6.751   2.930   1.507  1.00  0.00     0.190 HD
ATOM      4  N   UNL d   1       6.370   4.983   1.932  0.00  0.00    -0.213 N 
ATOM      5  C   UNL d   1       7.121   5.778   1.081  0.00  0.00     0.153 A 
ATOM      6  C   UNL d   1       6.791   7.101   1.423  0.00  0.00     0.090 A 
ATOM      7  N   UNL d   1       5.855   7.084   2.491  0.00  0.00    -0.331 N 
ATOM      8  HN  UNL d   1       5.423   7.882   2.956  1.00  0.00     0.168 HD
ATOM      9  C   UNL d   1       5.673   5.804   2.745  0.00  0.00     0.176 A 
ATOM     10  S   UNL d   1       4.807   4.822   3.886  0.00  0.00    -0.015 SA
ENDROOT
BRANCH   1  11
ATOM     11  N   UNL d   1       5.251   2.053   3.547  0.00  0.00    -0.356 N 
ATOM     12  C   UNL d   1       4.770   1.733   4.888  0.00  0.00     0.152 C 
BRANCH  11  13
ATOM     13  C   UNL d   1       5.345   0.886   2.612  0.00  0.00     0.227 C 
BRANCH  13  14
ATOM     14  C   UNL d   1       4.537   1.123   1.317  0.00  0.00     0.235 C 
ATOM     15  N   UNL d   1       3.242   1.583   1.492  0.00  0.00    -0.360 N 
ATOM     16  H   UNL d   1       2.743   1.517   0.608  0.00  0.00     0.162 HD
ATOM     17  O   UNL d   1       4.900   0.835   0.197  0.00  0.00    -0.272 OA
BRANCH  15  18
ATOM     18  C   UNL d   1       2.571   1.663   2.771  0.00  0.00     0.124 C 
BRANCH  18  19
ATOM     19  C   UNL d   1       1.667   2.813   2.945  0.00  0.00     0.047 C 
BRANCH  19  20
ATOM     20  C   UNL d   1       0.579   2.632   1.878  0.00  0.00     0.237 C 
BRANCH  20  21
ATOM     21  N   UNL d   1      -0.236   1.266   2.012  0.00  0.00    -0.067 N 
ATOM     22  C   UNL d   1      -1.000   1.219   3.333  0.00  0.00     0.235 C 
ATOM     23  C   UNL d   1      -1.944   0.028   3.391  0.00  0.00     0.028 C 
ATOM     24  C   UNL d   1      -1.196  -1.254   3.101  0.00  0.00     0.004 C 
ATOM     25  C   UNL d   1      -0.734  -1.217   1.645  0.00  0.00     0.033 C 
ATOM     26  C   UNL d   1       0.358  -0.168   1.472  0.00  0.00     0.184 C 
ATOM     27  C   UNL d   1       1.571  -0.871   2.164  0.00  0.00     0.040 C 
ATOM     28  H   UNL d   1      -0.979   1.449   1.319  0.00  0.00     0.280 HD
ENDBRANCH  20  21
ENDBRANCH  19  20
ENDBRANCH  18  19
ENDBRANCH  15  18
ENDBRANCH  13  14
ENDBRANCH  11  13
ENDBRANCH   1  11
BRANCH   5  29
ATOM     29  N   UNL d   1       7.996   5.304   0.144  0.00  0.00    -0.368 N 
ATOM     30  H   UNL d   1       8.753   5.942  -0.081  0.00  0.00     0.161 HD
BRANCH  29  31
ATOM     31  C   UNL d   1       8.520   3.966   0.085  0.00  0.00     0.083 C 
ATOM     32  C   UNL d   1       9.184   3.541   1.388  0.00  0.00     0.025 C 
ATOM     33  C   UNL d   1       9.277   2.044   1.222  0.00  0.00     0.002 C 
ATOM     34  C   UNL d   1       8.054   1.653   0.397  0.00  0.00     0.002 C 
ATOM     35  C   UNL d   1       7.535   2.888  -0.326  0.00  0.00     0.025 C 
ENDBRANCH  29  31
ENDBRANCH   5  29
BRANCH   6  36
ATOM     36  C   UNL d   1       7.322   8.330   0.726  0.00  0.00    -0.005 C 
ATOM     37  C   UNL d   1       7.117   9.624   1.224  0.00  0.00     0.014 C 
ATOM     38  C   UNL d   1       7.439  10.771   0.453  0.00  0.00     0.001 C 
ATOM     39  C   UNL d   1       8.103  10.665  -0.767  0.00  0.00     0.000 C 
ATOM     40  C   UNL d   1       8.472   9.410  -1.205  0.00  0.00     0.001 C 
ATOM     41  C   UNL d   1       8.021   8.277  -0.507  0.00  0.00     0.014 C 
ENDBRANCH   6  36
TORSDOF 10
