@<TRIPOS>MOLECULE
*****
 76 81 0 0 0
SMALL
GASTEIGER

@<TRIPOS>ATOM
      1 CL          1.3546    0.9922   -1.7399 Cl      1  UNL1       -0.0820
      2 C           3.1109    0.5217   -1.0119 C.ar    1  UNL1        0.0610
      3 C           3.7216    1.6919   -0.5733 C.ar    1  UNL1       -0.0419
      4 C           4.9539    1.5973    0.0264 C.ar    1  UNL1       -0.0585
      5 C           5.8070    0.5548   -0.4034 C.ar    1  UNL1       -0.0391
      6 C           5.2657   -0.7123   -0.8185 C.ar    1  UNL1        0.0497
      7 N           6.1665   -2.0964   -1.0297 N.pl3   1  UNL1       -0.3263
      8 C           6.3234   -3.5171   -0.0044 C.3     1  UNL1        0.0250
      9 C           6.1792   -5.2260   -0.4424 C.3     1  UNL1        0.0147
     10 N           7.3197   -5.1243   -1.2276 N.3     1  UNL1       -0.2993
     11 C           8.4088   -5.0164   -0.1941 C.3     1  UNL1       -0.0007
     12 C           8.6747   -3.8676    0.9407 C.3     1  UNL1       -0.0374
     13 C           7.3639   -3.6496    2.2197 C.3     1  UNL1       -0.0398
     14 C           6.9188   -2.0807    2.3265 C.3     1  UNL1       -0.0485
     15 C           6.0829   -1.5112    1.1651 C.3     1  UNL1       -0.0343
     16 C           4.6420   -2.5563    0.2343 C.3     1  UNL1        0.0231
     17 N           4.0976   -2.3564   -1.6897 N.am    1  UNL1       -0.3120
     18 C           2.4648   -1.5257   -1.9566 C.2     1  UNL1        0.2194
     19 O           2.2129   -1.1308   -3.0538 O.2     1  UNL1       -0.2752
     20 C           1.6329   -1.1805   -0.0432 C.3     1  UNL1        0.0477
     21 C           2.3121   -2.0381    1.5485 C.3     1  UNL1       -0.0362
     22 C           1.5006   -2.0835    2.7419 C.3     1  UNL1       -0.0396
     23 C           1.5615   -0.6443    3.1715 C.3     1  UNL1       -0.0473
     24 C           0.8867    0.2027    2.1116 C.3     1  UNL1       -0.0396
     25 C          -0.4469   -0.3263    1.6134 C.3     1  UNL1       -0.0473
     26 C          -0.4167   -1.7690    1.1000 C.3     1  UNL1       -0.0396
     27 C           0.2359   -2.6655    2.1787 C.3     1  UNL1       -0.0473
     28 C           0.2735   -1.8271   -0.2315 C.3     1  UNL1       -0.0362
     29 C           1.7691    0.2130    0.9275 C.3     1  UNL1       -0.0362
     30 C           4.4474   -4.2503    0.7583 C.3     1  UNL1       -0.0343
     31 C           5.8002   -4.6898    2.0500 C.3     1  UNL1       -0.0485
     32 C           6.9758   -3.9604   -2.2237 C.3     1  UNL1        0.0147
     33 C           7.1735   -2.3718   -1.9562 C.3     1  UNL1        0.0250
     34 C           3.7084   -0.8173   -0.5294 C.ar    1  UNL1        0.0802
     35 CL          2.5916   -3.0514   -0.5080 Cl      1  UNL1       -0.0801
     36 H           3.1107    2.5866   -0.5296 H       1  UNL1        0.0633
     37 H           5.2693    2.3499    0.7573 H       1  UNL1        0.0619
     38 H           6.8319    0.6548   -0.0640 H       1  UNL1        0.0636
     39 H           7.2339   -3.1919    0.2333 H       1  UNL1        0.0476
     40 H           5.9428   -3.2890    1.0350 H       1  UNL1        0.0476
     41 H           5.2982   -5.6261   -1.0002 H       1  UNL1        0.0442
     42 H           6.0596   -6.0473    0.3404 H       1  UNL1        0.0442
     43 H           8.3334   -5.9161    0.4337 H       1  UNL1        0.0427
     44 H           9.2467   -5.0794   -0.8657 H       1  UNL1        0.0427
     45 H           9.6929   -3.8470    1.3272 H       1  UNL1        0.0280
     46 H           8.7896   -2.9155    0.3508 H       1  UNL1        0.0280
     47 H           7.8460   -3.9161    3.1651 H       1  UNL1        0.0301
     48 H           6.2325   -1.8759    3.1410 H       1  UNL1        0.0269
     49 H           7.8009   -1.4008    2.3617 H       1  UNL1        0.0269
     50 H           6.9962   -1.2540    0.5274 H       1  UNL1        0.0283
     51 H           5.7247   -0.5493    1.5266 H       1  UNL1        0.0283
     52 H           4.0620   -2.1568    0.9509 H       1  UNL1        0.0498
     53 H           4.8044   -2.1164   -2.3714 H       1  UNL1        0.1490
     54 H           2.5896   -3.1273    1.5469 H       1  UNL1        0.0278
     55 H           3.1896   -1.5026    1.9658 H       1  UNL1        0.0278
     56 H           2.0413   -2.7451    3.4475 H       1  UNL1        0.0301
     57 H           1.1081   -0.5363    4.1359 H       1  UNL1        0.0271
     58 H           2.6253   -0.3165    3.2885 H       1  UNL1        0.0271
     59 H           0.8565    1.2476    2.4386 H       1  UNL1        0.0301
     60 H          -0.8195    0.3219    0.8105 H       1  UNL1        0.0271
     61 H          -1.1091   -0.2885    2.4643 H       1  UNL1        0.0271
     62 H          -1.4067   -2.1546    0.8822 H       1  UNL1        0.0301
     63 H          -0.4181   -2.7551    3.0306 H       1  UNL1        0.0271
     64 H           0.4399   -3.6730    1.7667 H       1  UNL1        0.0271
     65 H          -0.1748   -1.3741   -1.1155 H       1  UNL1        0.0278
     66 H           0.3047   -2.8900   -0.5494 H       1  UNL1        0.0278
     67 H           2.8011    0.3551    1.3332 H       1  UNL1        0.0278
     68 H           1.5584    1.1890    0.5067 H       1  UNL1        0.0278
     69 H           4.5712   -4.3013   -0.3753 H       1  UNL1        0.0283
     70 H           3.6508   -4.9907    0.5112 H       1  UNL1        0.0283
     71 H           6.3055   -5.6599    1.9812 H       1  UNL1        0.0269
     72 H           5.2167   -4.6269    2.9622 H       1  UNL1        0.0269
     73 H           5.8965   -4.0949   -2.5143 H       1  UNL1        0.0442
     74 H           7.5826   -4.1764   -3.0653 H       1  UNL1        0.0442
     75 H           6.9374   -1.6645   -2.7300 H       1  UNL1        0.0476
     76 H           8.1133   -2.1917   -1.4504 H       1  UNL1        0.0476
@<TRIPOS>BOND
     1     1     2    1
     2     2     3   ar
     3     3     4   ar
     4     4     5   ar
     5     5     6   ar
     6     6     7    1
     7     7     8    1
     8     8     9    1
     9     9    10    1
    10    10    11    1
    11    11    12    1
    12    12    13    1
    13    13    14    1
    14    14    15    1
    15    15    16    1
    16    16    17    1
    17    17    18   am
    18    18    19    2
    19    18    20    1
    20    20    21    1
    21    21    22    1
    22    22    23    1
    23    23    24    1
    24    24    25    1
    25    25    26    1
    26    26    27    1
    27    22    27    1
    28    26    28    1
    29    20    28    1
    30    24    29    1
    31    20    29    1
    32    16    30    1
    33    30    31    1
    34    13    31    1
    35    10    32    1
    36    32    33    1
    37     7    33    1
    38     6    34   ar
    39     2    34   ar
    40    34    35    1
    41     3    36    1
    42     4    37    1
    43     5    38    1
    44     8    39    1
    45     8    40    1
    46     9    41    1
    47     9    42    1
    48    11    43    1
    49    11    44    1
    50    12    45    1
    51    12    46    1
    52    13    47    1
    53    14    48    1
    54    14    49    1
    55    15    50    1
    56    15    51    1
    57    16    52    1
    58    17    53    1
    59    21    54    1
    60    21    55    1
    61    22    56    1
    62    23    57    1
    63    23    58    1
    64    24    59    1
    65    25    60    1
    66    25    61    1
    67    26    62    1
    68    27    63    1
    69    27    64    1
    70    28    65    1
    71    28    66    1
    72    29    67    1
    73    29    68    1
    74    30    69    1
    75    30    70    1
    76    31    71    1
    77    31    72    1
    78    32    73    1
    79    32    74    1
    80    33    75    1
    81    33    76    1
