REMARK  7 active torsions:
REMARK  status: ('A' for Active; 'I' for Inactive)
REMARK    1  A    between atoms: N_2  and  C_5 
REMARK    2  A    between atoms: C_5  and  C_6 
REMARK    3  A    between atoms: C_6  and  C_7 
REMARK    4  A    between atoms: C_7  and  N_8 
REMARK    5  A    between atoms: C_27  and  C_28 
REMARK    6  A    between atoms: C_30  and  O_36 
REMARK    7  A    between atoms: C_33  and  O_34 
ROOT
ATOM      1  N   UNL d   1       8.686  -2.318   1.573  0.00  0.00    -0.342 N 
ATOM      2  C   UNL d   1       7.802  -2.216   0.437  0.00  0.00     0.228 C 
ATOM      3  C   UNL d   1       7.174  -0.838   0.491  0.00  0.00     0.239 C 
ATOM      4  O   UNL d   1       6.728  -0.292  -0.534  0.00  0.00    -0.271 OA
ATOM      5  N   UNL d   1       6.837  -0.423   1.799  0.00  0.00    -0.327 N 
ATOM      6  C   UNL d   1       7.632  -0.646   2.989  0.00  0.00     0.180 C 
ATOM      7  C   UNL d   1       8.071  -2.066   2.799  0.00  0.00     0.243 C 
ATOM      8  O   UNL d   1       8.028  -2.829   3.775  0.00  0.00    -0.271 OA
ATOM      9  C   UNL d   1       6.890  -0.504   4.455  0.00  0.00     0.042 C 
ATOM     10  C   UNL d   1       5.895   0.642   4.688  0.00  0.00     0.021 C 
ATOM     11  C   UNL d   1       5.794   1.755   5.517  0.00  0.00     0.058 C 
ATOM     12  C   UNL d   1       4.828   3.110   5.378  0.00  0.00    -0.016 C 
ATOM     13  C   UNL d   1       5.382   4.354   5.577  0.00  0.00    -0.003 C 
ATOM     14  C   UNL d   1       6.657   4.408   6.242  0.00  0.00     0.001 C 
ATOM     15  C   UNL d   1       7.468   3.359   5.997  0.00  0.00     0.020 C 
ATOM     16  C   UNL d   1       6.965   2.410   4.904  0.00  0.00    -0.006 C 
ATOM     17  N   UNL d   1       6.697   2.363   3.613  0.00  0.00    -0.288 N 
ATOM     18  H   UNL d   1       6.409   3.245   3.173  0.00  0.00     0.128 HD
ATOM     19  C   UNL d   1       5.680   1.152   3.343  0.00  0.00     0.092 C 
ATOM     20  C   UNL d   1       5.654   0.317   2.001  0.00  0.00     0.142 C 
ENDROOT
BRANCH  20  21
ATOM     21  C   UNL d   1       4.391  -0.591   1.916  0.00  0.00     0.002 C 
ATOM     22  C   UNL d   1       4.420  -2.014   1.661  0.00  0.00     0.048 C 
ATOM     23  C   UNL d   1       3.250  -2.765   1.455  0.00  0.00     0.069 C 
ATOM     24  C   UNL d   1       2.037  -2.157   1.730  0.00  0.00     0.039 C 
ATOM     25  C   UNL d   1       1.997  -0.820   2.124  0.00  0.00     0.040 C 
ATOM     26  C   UNL d   1       3.128   0.003   2.067  0.00  0.00     0.076 C 
BRANCH  23  27
ATOM     27  O   UNL d   1       3.146  -4.059   1.024  0.00  0.00    -0.356 OA
ATOM     28  C   UNL d   1       4.323  -4.760   0.649  0.00  0.00     0.210 C 
ENDBRANCH  23  27
BRANCH  26  29
ATOM     29  O   UNL d   1       2.794   1.329   2.190  0.00  0.00    -0.355 OA
ATOM     30  C   UNL d   1       3.660   2.423   1.951  0.00  0.00     0.210 C 
ENDBRANCH  26  29
ENDBRANCH  20  21
BRANCH   1  31
ATOM     31  C   UNL d   1      10.112  -2.289   1.259  0.00  0.00     0.128 C 
BRANCH  31  32
ATOM     32  C   UNL d   1      10.996  -1.538   2.237  0.00  0.00     0.047 C 
BRANCH  32  33
ATOM     33  C   UNL d   1      10.826  -1.891   3.711  0.00  0.00     0.235 C 
BRANCH  33  34
ATOM     34  N   UNL d   1      11.079  -3.341   4.039  0.00  0.00    -0.079 N 
ATOM     35  C   UNL d   1      10.295  -4.459   3.379  0.00  0.00     0.269 C 
ATOM     36  H   UNL d   1      10.834  -3.433   5.036  0.00  0.00     0.278 HD
ATOM     37  C   UNL d   1      12.537  -3.633   3.883  0.00  0.00     0.269 C 
ENDBRANCH  33  34
ENDBRANCH  32  33
ENDBRANCH  31  32
ENDBRANCH   1  31
TORSDOF 7
