@<TRIPOS>MOLECULE
ZINC20345595
   27    29     0     0     0
SMALL
USER_CHARGES

@<TRIPOS>ATOM
      1 C1         -0.0184    1.5028    0.0103 C.3       1 <0>        -0.1132
      2 C2          0.0021   -0.0041    0.0020 C.2       1 <0>         0.4151
      3 N1         -1.1712   -0.6873    0.0040 N.am      1 <0>        -0.6360
      4 H1         -2.0075   -0.1959    0.0104 H         1 <0>         0.4229
      5 C3         -1.1967   -2.0329   -0.0032 C.2       1 <0>         0.5532
      6 O1         -2.2586   -2.6317   -0.0017 O.2       1 <0>        -0.5098
      7 C4          0.0419   -2.7503   -0.0131 C.2       1 <0>        -0.2510
      8 C5          0.2745   -4.1896   -0.0225 C.2       1 <0>        -0.0193
      9 C6          1.5512   -4.6432   -0.0315 C.2       1 <0>        -0.1790
     10 S1          2.5207   -3.1474   -0.0278 S.3       1 <0>         0.1613
     11 C7          1.2027   -1.9597   -0.0144 C.2       1 <0>         0.1122
     12 N2          1.1481   -0.6304   -0.0123 N.2       1 <0>        -0.4927
     13 C8         -0.8642   -5.1386   -0.0218 C.ar      1 <0>        -0.0273
     14 C9         -1.8958   -4.9928    0.9047 C.ar      1 <0>        -0.0535
     15 C10        -2.9536   -5.8788    0.9007 C.ar      1 <0>        -0.0932
     16 C11        -2.9918   -6.9108   -0.0209 C.ar      1 <0>        -0.0830
     17 C12        -1.9700   -7.0605   -0.9427 C.ar      1 <0>        -0.0967
     18 C13        -0.9103   -6.1768   -0.9513 C.ar      1 <0>        -0.0972
     19 Br1        -4.4448   -8.1211   -0.0204 Br        1 <0>        -0.0520
     20 H2          1.0042    1.8801    0.0026 H         1 <0>         0.1105
     21 H3         -0.5455    1.8639   -0.8728 H         1 <0>         0.1009
     22 H4         -0.5286    1.8543    0.9071 H         1 <0>         0.1012
     23 H5          1.8983   -5.6659   -0.0386 H         1 <0>         0.2009
     24 H6         -1.8668   -4.1882    1.6245 H         1 <0>         0.1263
     25 H7         -3.7531   -5.7670    1.6182 H         1 <0>         0.1325
     26 H8         -2.0046   -7.8677   -1.6594 H         1 <0>         0.1345
     27 H9         -0.1159   -6.2917   -1.6738 H         1 <0>         0.1325
@<TRIPOS>BOND
     1    1    2 1
     2    1   20 1
     3    1   21 1
     4    1   22 1
     5    2   12 2
     6    2    3 1
     7    3    4 1
     8    3    5 am
     9    5    6 2
    10    5    7 1
    11    7   11 2
    12    7    8 1
    13    8    9 2
    14    8   13 1
    15    9   10 1
    16    9   23 1
    17   10   11 1
    18   11   12 1
    19   13   18 ar
    20   13   14 ar
    21   14   15 ar
    22   14   24 1
    23   15   16 ar
    24   15   25 1
    25   16   17 ar
    26   16   19 1
    27   17   18 ar
    28   17   26 1
    29   18   27 1
