@<TRIPOS>MOLECULE
ZINC02889977
   31    32     0     0     0
SMALL
USER_CHARGES
1-(2-fluorophenyl)-3-[4-(trifluoromethyl)phenyl]-urea
@<TRIPOS>ATOM
      1 C1          5.9665   -4.8894    0.3184 C.ar      1 <0>        -0.1045
      2 C2          6.0535   -6.1271   -0.2919 C.ar      1 <0>        -0.1095
      3 C3          4.9387   -6.6876   -0.8877 C.ar      1 <0>        -0.1300
      4 C4          3.7326   -6.0108   -0.8746 C.ar      1 <0>         0.0638
      5 C5          3.6430   -4.7663   -0.2610 C.ar      1 <0>         0.1329
      6 C6          4.7662   -4.2056    0.3311 C.ar      1 <0>        -0.1113
      7 N1          2.4234   -4.0775   -0.2454 N.am      1 <0>        -0.6730
      8 C7          2.4054   -2.7434   -0.0554 C.2       1 <0>         0.7084
      9 O1          3.4499   -2.1236    0.0041 O.2       1 <0>        -0.5461
     10 N2          1.2298   -2.0962    0.0688 N.am      1 <0>        -0.6804
     11 C8          1.2054   -0.6996    0.1533 C.ar      1 <0>         0.1963
     12 C9          2.1432    0.0558   -0.5384 C.ar      1 <0>        -0.1223
     13 C10         2.1161    1.4341   -0.4533 C.ar      1 <0>        -0.0468
     14 C11         1.1566    2.0618    0.3196 C.ar      1 <0>        -0.1998
     15 C12         0.2215    1.3125    1.0097 C.ar      1 <0>        -0.0469
     16 C13         0.2431   -0.0661    0.9287 C.ar      1 <0>        -0.1466
     17 C14         1.1301    3.5659    0.4102 C.3       1 <0>         0.5099
     18 F1          0.3143    4.0798   -0.6036 F         1 <0>        -0.1764
     19 F2          0.6226    3.9491    1.6563 F         1 <0>        -0.1770
     20 F3          2.4286    4.0650    0.2619 F         1 <0>        -0.1763
     21 F4          2.6434   -6.5579   -1.4575 F         1 <0>        -0.1388
     22 H1          6.8395   -4.4546    0.7825 H         1 <0>         0.1351
     23 H2          6.9944   -6.6571   -0.3036 H         1 <0>         0.1355
     24 H3          5.0099   -7.6543   -1.3639 H         1 <0>         0.1409
     25 H4          4.7010   -3.2370    0.8042 H         1 <0>         0.1638
     26 H5          1.5919   -4.5607   -0.3714 H         1 <0>         0.4138
     27 H6          0.4005   -2.5985    0.0996 H         1 <0>         0.4140
     28 H7          2.8925   -0.4339   -1.1425 H         1 <0>         0.1482
     29 H8          2.8479    2.0219   -0.9874 H         1 <0>         0.1413
     30 H9         -0.5264    1.8057    1.6128 H         1 <0>         0.1422
     31 H10        -0.4877   -0.6508    1.4675 H         1 <0>         0.1398
@<TRIPOS>BOND
     1    1    6 ar
     2    1    2 ar
     3    1   22 1
     4    2    3 ar
     5    2   23 1
     6    3    4 ar
     7    3   24 1
     8    4    5 ar
     9    4   21 1
    10    5    6 ar
    11    5    7 1
    12    6   25 1
    13    7    8 am
    14    7   26 1
    15    8    9 2
    16    8   10 am
    17   10   11 1
    18   10   27 1
    19   11   16 ar
    20   11   12 ar
    21   12   13 ar
    22   12   28 1
    23   13   14 ar
    24   13   29 1
    25   14   15 ar
    26   14   17 1
    27   15   16 ar
    28   15   30 1
    29   16   31 1
    30   17   18 1
    31   17   19 1
    32   17   20 1
