@<TRIPOS>MOLECULE
ZINC02955558
   56    59     0     0     0
SMALL
USER_CHARGES

@<TRIPOS>ATOM
      1 C1          1.6292   -1.0483    1.3853 C.3       1 <0>        -0.1572
      2 C2          0.8155   -2.0406    0.5521 C.3       1 <0>         0.0517
      3 O1          1.1238   -1.8656   -0.8322 O.3       1 <0>        -0.3186
      4 C3          0.4813   -2.6756   -1.7148 C.ar      1 <0>         0.1738
      5 C4         -0.4294   -3.6135   -1.2608 C.ar      1 <0>        -0.1937
      6 C5         -1.0829   -4.4376   -2.1594 C.ar      1 <0>        -0.0260
      7 C6         -0.8318   -4.3314   -3.5161 C.ar      1 <0>        -0.1343
      8 C7          0.0734   -3.4013   -3.9850 C.ar      1 <0>        -0.0519
      9 C8          0.7342   -2.5602   -3.0881 C.ar      1 <0>        -0.0282
     10 N1          1.6282   -1.6317   -3.5471 N.pl3     1 <0>        -0.4741
     11 C9          2.5834   -1.9923   -4.3746 C.2       1 <0>         0.5079
     12 C10         3.4866   -0.9889   -4.9738 C.2       1 <0>        -0.2499
     13 C11         4.7427   -1.4136   -5.3464 C.2       1 <0>         0.1531
     14 C12         5.0705   -2.8226   -5.1184 C.ar      1 <0>        -0.1214
     15 C13         6.3837   -3.2983   -5.2141 C.ar      1 <0>        -0.0593
     16 C14         6.6163   -4.6384   -4.9830 C.ar      1 <0>         0.1412
     17 N2          5.6298   -5.4610   -4.6769 N.ar      1 <0>        -0.4137
     18 C15         4.3780   -5.0615   -4.5760 C.ar      1 <0>         0.1676
     19 C16         4.0463   -3.7318   -4.7932 C.ar      1 <0>         0.0604
     20 O2          2.7704   -3.2986   -4.6976 O.3       1 <0>        -0.1877
     21 C17         3.3007   -6.0545   -4.2232 C.3       1 <0>        -0.1156
     22 C18         7.5172   -2.3681   -5.5621 C.3       1 <0>         0.1077
     23 O3          8.7429   -3.1020   -5.5941 O.3       1 <0>        -0.5632
     24 C19         3.0613    0.4096   -5.1647 C.2       1 <0>         0.5743
     25 O4          3.8607    1.2411   -5.5503 O.2       1 <0>        -0.4641
     26 N3          1.7865    0.7667   -4.9120 N.am      1 <0>        -0.6719
     27 C20         1.3859    2.0968   -5.0810 C.ar      1 <0>         0.1424
     28 C21         1.9674    2.8775   -6.0718 C.ar      1 <0>        -0.0939
     29 C22         1.5710    4.1901   -6.2382 C.ar      1 <0>        -0.1003
     30 C23         0.5947    4.7292   -5.4181 C.ar      1 <0>         0.0744
     31 C24         0.0122    3.9524   -4.4279 C.ar      1 <0>         0.0948
     32 C25         0.4027    2.6359   -4.2623 C.ar      1 <0>        -0.1481
     33 F1         -0.9402    4.4802   -3.6281 F         1 <0>        -0.1161
     34 F2          0.2093    6.0136   -5.5822 F         1 <0>        -0.1169
     35 H1          2.6927   -1.2255    1.2247 H         1 <0>         0.0686
     36 H2          1.3807   -0.0309    1.0835 H         1 <0>         0.0704
     37 H3          1.3940   -1.1818    2.4412 H         1 <0>         0.0917
     38 H4          1.0640   -3.0580    0.8539 H         1 <0>         0.0755
     39 H5         -0.2480   -1.8634    0.7127 H         1 <0>         0.0769
     40 H6         -0.6299   -3.7025   -0.2033 H         1 <0>         0.1531
     41 H7         -1.7927   -5.1680   -1.8002 H         1 <0>         0.1500
     42 H8         -1.3460   -4.9793   -4.2106 H         1 <0>         0.1516
     43 H9          0.2669   -3.3213   -5.0445 H         1 <0>         0.1449
     44 H10         5.4569   -0.7351   -5.7892 H         1 <0>         0.2022
     45 H11         7.6236   -5.0216   -5.0532 H         1 <0>         0.1982
     46 H12         3.1848   -6.0954   -3.1401 H         1 <0>         0.0954
     47 H13         2.3593   -5.7462   -4.6779 H         1 <0>         0.0860
     48 H14         3.5788   -7.0402   -4.5963 H         1 <0>         0.1020
     49 H15         7.3346   -1.9229   -6.5401 H         1 <0>         0.0844
     50 H16         7.5846   -1.5808   -4.8113 H         1 <0>         0.0823
     51 H17         9.5171   -2.5652   -5.8123 H         1 <0>         0.4043
     52 H18         1.1467    0.1018   -4.6130 H         1 <0>         0.3982
     53 H19         2.7297    2.4583   -6.7118 H         1 <0>         0.1591
     54 H20         2.0235    4.7967   -7.0087 H         1 <0>         0.1603
     55 H21        -0.0538    2.0291   -3.4943 H         1 <0>         0.1496
     56 H22         1.5570   -0.7074   -3.2618 H         1 <0>         0.4519
@<TRIPOS>BOND
     1    1    2 1
     2    1   35 1
     3    1   36 1
     4    1   37 1
     5    2    3 1
     6    2   38 1
     7    2   39 1
     8    3    4 1
     9    4    9 ar
    10    4    5 ar
    11    5    6 ar
    12    5   40 1
    13    6    7 ar
    14    6   41 1
    15    7    8 ar
    16    7   42 1
    17    8    9 ar
    18    8   43 1
    19    9   10 1
    20   10   11 2
    21   10   56 1
    22   11   20 1
    23   11   12 1
    24   12   13 2
    25   12   24 1
    26   13   14 1
    27   13   44 1
    28   14   19 ar
    29   14   15 ar
    30   15   16 ar
    31   15   22 1
    32   16   17 ar
    33   16   45 1
    34   17   18 ar
    35   18   19 ar
    36   18   21 1
    37   19   20 1
    38   21   46 1
    39   21   47 1
    40   21   48 1
    41   22   23 1
    42   22   49 1
    43   22   50 1
    44   23   51 1
    45   24   25 2
    46   24   26 am
    47   26   27 1
    48   26   52 1
    49   27   32 ar
    50   27   28 ar
    51   28   29 ar
    52   28   53 1
    53   29   30 ar
    54   29   54 1
    55   30   31 ar
    56   30   34 1
    57   31   32 ar
    58   31   33 1
    59   32   55 1
