@<TRIPOS>MOLECULE
ZINC20132274
   27    28     0     0     0
SMALL
USER_CHARGES
(2R)-2-bromo-N-(6-chloro-1,3-benzothiazol-2-yl)butanamide
@<TRIPOS>ATOM
      1 C1          1.3994    3.5564    0.1335 C.3       1 <0>        -0.1607
      2 C2          1.4170    2.0324   -0.0006 C.3       1 <0>        -0.1181
      3 C3         -0.0184    1.5028    0.0103 C.3       1 <0>        -0.0770
      4 H1         -0.3414    1.7113    1.0409 H         1 <0>         0.1343
      5 C4          0.0021   -0.0041    0.0020 C.2       1 <0>         0.5152
      6 O1          0.7457   -0.5963   -0.7509 O.2       1 <0>        -0.4736
      7 N1         -0.8061   -0.6935    0.8314 N.am      1 <0>        -0.6201
      8 C5         -0.7873   -2.0790    0.8238 C.2       1 <0>         0.3666
      9 N2         -1.4920   -2.9157    1.5489 N.2       1 <0>        -0.5430
     10 C6         -1.3698   -4.2563    1.4349 C.ar      1 <0>         0.1083
     11 C7         -2.0631   -5.2599    2.1504 C.ar      1 <0>        -0.0561
     12 C8         -1.8184   -6.5867    1.9108 C.ar      1 <0>        -0.0963
     13 C9         -0.8871   -6.9931    0.9645 C.ar      1 <0>        -0.0249
     14 C10        -0.1902   -6.0375    0.2463 C.ar      1 <0>        -0.0465
     15 C11        -0.4298   -4.7063    0.4801 C.ar      1 <0>        -0.1772
     16 S1          0.1970   -3.1811   -0.1815 S.3       1 <0>         0.1145
     17 Cl1        -0.6006   -8.6824    0.6849 Cl        1 <0>        -0.0504
     18 Br1        -0.9692    2.1540   -1.5824 Br        1 <0>        -0.0606
     19 H2          2.4314    3.9371    0.1257 H         1 <0>         0.0699
     20 H3          0.9127    3.8356    1.0797 H         1 <0>         0.0606
     21 H4          0.8414    3.9921   -0.7084 H         1 <0>         0.0693
     22 H5          1.9037    1.7532   -0.9468 H         1 <0>         0.0896
     23 H6          1.9750    1.5966    0.8413 H         1 <0>         0.0845
     24 H7         -1.4806   -0.1563    1.5143 H         1 <0>         0.4594
     25 H8         -2.7941   -4.9775    2.8935 H         1 <0>         0.1429
     26 H9         -2.3619   -7.3331    2.4709 H         1 <0>         0.1454
     27 H10         0.5372   -6.3371   -0.4935 H         1 <0>         0.1439
@<TRIPOS>BOND
     1    1    2 1
     2    1   19 1
     3    1   20 1
     4    1   21 1
     5    2    3 1
     6    2   22 1
     7    2   23 1
     8    3    4 1
     9    3    5 1
    10    3   18 1
    11    5    6 2
    12    5    7 am
    13    7    8 1
    14    7   24 1
    15    8   16 1
    16    8    9 2
    17    9   10 1
    18   10   15 ar
    19   10   11 ar
    20   11   12 ar
    21   11   25 1
    22   12   13 ar
    23   12   26 1
    24   13   14 ar
    25   13   17 1
    26   14   15 ar
    27   14   27 1
    28   15   16 1
