@<TRIPOS>MOLECULE
ZINC65137140
   36    39     0     0     0
SMALL
USER_CHARGES

@<TRIPOS>ATOM
      1 C1         -0.0166    1.3765    0.0096 C.ar      1 <0>        -0.1108
      2 C2          1.1663    2.0890    0.0021 C.ar      1 <0>        -0.0668
      3 C3          2.3891    1.4166   -0.0132 C.ar      1 <0>        -0.0284
      4 C4          2.4146    0.0238   -0.0209 C.ar      1 <0>        -0.0622
      5 C5          1.2184   -0.6884   -0.0133 C.ar      1 <0>        -0.0410
      6 C6          0.0021   -0.0041    0.0020 C.ar      1 <0>        -0.0806
      7 C7          1.2366   -2.1690   -0.0220 C.2       1 <0>         0.3616
      8 N1          2.3120   -2.8860   -0.0310 N.2       1 <0>        -0.3410
      9 O1          1.9997   -4.2662   -0.0375 O.3       1 <0>        -0.1813
     10 C8          0.5670   -4.3611   -0.0316 C.3       1 <0>         0.3263
     11 H1          0.2239   -4.8817    0.8624 H         1 <0>         0.1112
     12 N2          0.1051   -2.9642   -0.0155 N.pl3     1 <0>        -0.7506
     13 C9          0.0816   -5.0692   -1.2702 C.ar      1 <0>        -0.1768
     14 C10        -0.4705   -4.3438   -2.3092 C.ar      1 <0>        -0.0385
     15 C11        -0.9156   -4.9917   -3.4457 C.ar      1 <0>        -0.1649
     16 C12        -0.8093   -6.3690   -3.5447 C.ar      1 <0>         0.1445
     17 C13        -0.2566   -7.0964   -2.5050 C.ar      1 <0>        -0.1931
     18 C14         0.1942   -6.4456   -1.3693 C.ar      1 <0>         0.1629
     19 F1          0.7390   -7.1538   -0.3560 F         1 <0>        -0.1205
     20 F2         -1.2453   -7.0024   -4.6555 F         1 <0>        -0.1256
     21 C15         3.6560    2.1815   -0.0216 C.2       1 <0>         0.1199
     22 C16         3.7803    3.5420   -0.0105 C.2       1 <0>        -0.2467
     23 C17         5.1415    3.8472   -0.0244 C.2       1 <0>         0.0492
     24 N3          5.8200    2.7280   -0.0432 N.2       1 <0>        -0.2789
     25 N4          4.9147    1.6591   -0.0361 N.pl3     1 <0>        -0.4713
     26 H2          5.1428    0.7163   -0.0424 H         1 <0>         0.4399
     27 H3         -0.9604    1.9013    0.0260 H         1 <0>         0.1412
     28 H4          1.1451    3.1688    0.0078 H         1 <0>         0.1402
     29 H5          3.3583   -0.5012   -0.0331 H         1 <0>         0.1349
     30 H6         -0.9265   -0.5556    0.0079 H         1 <0>         0.1303
     31 H7         -0.8158   -2.6596   -0.0047 H         1 <0>         0.4299
     32 H8         -0.5544   -3.2698   -2.2326 H         1 <0>         0.1424
     33 H9         -1.3468   -4.4239   -4.2569 H         1 <0>         0.1475
     34 H10        -0.1733   -8.1705   -2.5814 H         1 <0>         0.1551
     35 H11         2.9690    4.2546    0.0061 H         1 <0>         0.1532
     36 H12         5.5647    4.8408   -0.0209 H         1 <0>         0.1885
@<TRIPOS>BOND
     1    1    6 ar
     2    1    2 ar
     3    1   27 1
     4    2    3 ar
     5    2   28 1
     6    3    4 ar
     7    3   21 1
     8    4    5 ar
     9    4   29 1
    10    5    6 ar
    11    5    7 1
    12    6   30 1
    13    7   12 1
    14    7    8 2
    15    8    9 1
    16    9   10 1
    17   10   11 1
    18   10   12 1
    19   10   13 1
    20   12   31 1
    21   13   18 ar
    22   13   14 ar
    23   14   15 ar
    24   14   32 1
    25   15   16 ar
    26   15   33 1
    27   16   17 ar
    28   16   20 1
    29   17   18 ar
    30   17   34 1
    31   18   19 1
    32   21   25 1
    33   21   22 2
    34   22   23 1
    35   22   35 1
    36   23   24 2
    37   23   36 1
    38   24   25 1
    39   25   26 1
