@<TRIPOS>MOLECULE
ZINC03533692
   30    31     0     0     0
SMALL
USER_CHARGES
N-[4-chloro-2-(trifluoromethyl)phenyl]-3-cyano-benzamide
@<TRIPOS>ATOM
      1 C1          1.1736    1.7810    0.0308 C.ar      1 <0>        -0.1204
      2 C2         -0.0139    1.0762    0.0439 C.ar      1 <0>        -0.0376
      3 C3         -1.2338    1.7571    0.0490 C.ar      1 <0>        -0.0283
      4 C4         -1.2502    3.1509    0.0516 C.ar      1 <0>        -0.0061
      5 C5         -0.0484    3.8552    0.0378 C.ar      1 <0>        -0.1404
      6 C6          1.1643    3.1615    0.0275 C.ar      1 <0>        -0.0555
      7 C7         -0.0561    5.3335    0.0338 C.2       1 <0>         0.5697
      8 O1         -1.1120    5.9359    0.0428 O.2       1 <0>        -0.5011
      9 N1          1.1075    6.0135    0.0200 N.am      1 <0>        -0.6744
     10 C8          1.1011    7.4089   -0.0794 C.ar      1 <0>         0.2039
     11 C9          0.0900    8.1449    0.5252 C.ar      1 <0>        -0.1102
     12 C10         0.0864    9.5221    0.4259 C.ar      1 <0>        -0.0549
     13 C11         1.0892   10.1694   -0.2749 C.ar      1 <0>        -0.0532
     14 C12         2.0975    9.4387   -0.8781 C.ar      1 <0>        -0.0436
     15 C13         2.1086    8.0611   -0.7778 C.ar      1 <0>        -0.2031
     16 C14         3.2103    7.2663   -1.4303 C.3       1 <0>         0.5122
     17 F1          4.0992    8.1379   -2.0683 F         1 <0>        -0.1680
     18 F2          3.8954    6.5321   -0.4562 F         1 <0>        -0.1769
     19 F3          2.6588    6.3908   -2.3720 F         1 <0>        -0.1699
     20 Cl1         1.0816   11.9010   -0.3978 Cl        1 <0>        -0.0486
     21 C15        -2.4644    1.0248    0.0571 C.1       1 <0>         0.2470
     22 N2         -3.4407    0.4440    0.0635 N.1       1 <0>        -0.3982
     23 H1          2.1139    1.2497    0.0228 H         1 <0>         0.1467
     24 H2          0.0005   -0.0038    0.0458 H         1 <0>         0.1435
     25 H3         -2.1903    3.6824    0.0596 H         1 <0>         0.1505
     26 H4          2.0967    3.7064    0.0172 H         1 <0>         0.1334
     27 H5          1.9493    5.5353    0.0791 H         1 <0>         0.4148
     28 H6         -0.6923    7.6404    1.0728 H         1 <0>         0.1631
     29 H7         -0.6995   10.0948    0.8958 H         1 <0>         0.1505
     30 H8          2.8790    9.9462   -1.4241 H         1 <0>         0.1551
@<TRIPOS>BOND
     1    1    6 ar
     2    1    2 ar
     3    1   23 1
     4    2    3 ar
     5    2   24 1
     6    3    4 ar
     7    3   21 1
     8    4    5 ar
     9    4   25 1
    10    5    6 ar
    11    5    7 1
    12    6   26 1
    13    7    8 2
    14    7    9 am
    15    9   10 1
    16    9   27 1
    17   10   15 ar
    18   10   11 ar
    19   11   12 ar
    20   11   28 1
    21   12   13 ar
    22   12   29 1
    23   13   14 ar
    24   13   20 1
    25   14   15 ar
    26   14   30 1
    27   15   16 1
    28   16   17 1
    29   16   18 1
    30   16   19 1
    31   21   22 3
