@<TRIPOS>MOLECULE
ZINC01633991
   67    68     0     0     0
SMALL
USER_CHARGES
4-(1-methylbutyl)-N-[4-(1-methylbutyl)cyclohexyl]-cyclohexan-1-amine
@<TRIPOS>ATOM
      1 C1          1.7388   -3.6456   -2.9062 C.3       1 <0>        -0.1565
      2 C2          2.4877   -2.5073   -3.6021 C.3       1 <0>        -0.1272
      3 C3          2.8921   -1.4553   -2.5674 C.3       1 <0>        -0.1192
      4 C4          3.6410   -0.3170   -3.2633 C.3       1 <0>        -0.0869
      5 H1          3.0270    0.0815   -4.0710 H         1 <0>         0.0693
      6 C5          4.9565   -0.8475   -3.8367 C.3       1 <0>        -0.1563
      7 C6          3.9361    0.7926   -2.2520 C.3       1 <0>        -0.0900
      8 C7          2.6205    1.3231   -1.6786 C.3       1 <0>        -0.1346
      9 C8          2.9156    2.4326   -0.6673 C.3       1 <0>        -0.1429
     10 C9          3.6644    3.5710   -1.3632 C.3       1 <0>         0.0325
     11 C10         4.9800    3.0405   -1.9367 C.3       1 <0>        -0.1416
     12 C11         4.6849    1.9310   -2.9479 C.3       1 <0>        -0.1311
     13 C12         3.1881    5.5050   -2.7400 C.3       1 <0>         0.0270
     14 C13         2.3893    6.4316   -1.8212 C.3       1 <0>        -0.1376
     15 C14         2.7551    7.8866   -2.1214 C.3       1 <0>        -0.1158
     16 C15         2.4232    8.2053   -3.5805 C.3       1 <0>        -0.0882
     17 C16         3.2219    7.2787   -4.4994 C.3       1 <0>        -0.1145
     18 C17         2.8562    5.8236   -4.1992 C.3       1 <0>        -0.1412
     19 C18         2.7889    9.6603   -3.8807 C.3       1 <0>        -0.0870
     20 H2          3.8549    9.8097   -3.7096 H         1 <0>         0.0726
     21 C19         2.4570    9.9789   -5.3399 C.3       1 <0>        -0.1552
     22 C20         1.9901   10.5869   -2.9619 C.3       1 <0>        -0.1182
     23 C21         2.4454   12.0321   -3.1743 C.3       1 <0>        -0.1278
     24 C22         1.6466   12.9587   -2.2555 C.3       1 <0>        -0.1559
     25 H3          1.4507   -4.3951   -3.6434 H         1 <0>         0.0570
     26 H4          2.3864   -4.1024   -2.1578 H         1 <0>         0.0550
     27 H5          0.8460   -3.2505   -2.4217 H         1 <0>         0.0529
     28 H6          1.8401   -2.0505   -4.3506 H         1 <0>         0.0595
     29 H7          3.3805   -2.9025   -4.0866 H         1 <0>         0.0653
     30 H8          3.5397   -1.9121   -1.8190 H         1 <0>         0.0650
     31 H9          1.9993   -1.0601   -2.0829 H         1 <0>         0.0637
     32 H10         4.7463   -1.6379   -4.5572 H         1 <0>         0.0632
     33 H11         5.4900   -0.0365   -4.3325 H         1 <0>         0.0556
     34 H12         5.5705   -1.2459   -3.0290 H         1 <0>         0.0582
     35 H13         4.5500    0.3942   -1.4443 H         1 <0>         0.0869
     36 H14         2.0066    1.7215   -2.4863 H         1 <0>         0.0571
     37 H15         2.0870    0.5121   -1.1828 H         1 <0>         0.0946
     38 H16         3.5296    2.0342    0.1404 H         1 <0>         0.1113
     39 H17         1.9784    2.8106   -0.2588 H         1 <0>         0.0885
     40 H18         3.8747    4.3615   -0.6428 H         1 <0>         0.1374
     41 H19         5.5940    2.6421   -1.1290 H         1 <0>         0.1114
     42 H20         5.5135    3.8515   -2.4324 H         1 <0>         0.0863
     43 H21         5.6221    1.5530   -3.3565 H         1 <0>         0.0966
     44 H22         4.0709    2.3294   -3.7557 H         1 <0>         0.0554
     45 H23         4.2542    5.6544   -2.5689 H         1 <0>         0.1368
     46 H24         1.3233    6.2822   -1.9923 H         1 <0>         0.0863
     47 H25         2.6258    6.2046   -0.7816 H         1 <0>         0.0850
     48 H26         3.8211    8.0360   -1.9503 H         1 <0>         0.0742
     49 H27         2.1860    8.5467   -1.4668 H         1 <0>         0.0884
     50 H28         1.3571    8.0559   -3.7516 H         1 <0>         0.0775
     51 H29         4.2880    7.4281   -4.3282 H         1 <0>         0.0742
     52 H30         2.9855    7.5057   -5.5389 H         1 <0>         0.0883
     53 H31         3.4253    5.1635   -4.8538 H         1 <0>         0.0853
     54 H32         1.7902    5.6742   -4.3703 H         1 <0>         0.0863
     55 H33         1.3909    9.8295   -5.5110 H         1 <0>         0.0558
     56 H34         2.7175   11.0155   -5.5537 H         1 <0>         0.0623
     57 H35         3.0260    9.3188   -5.9945 H         1 <0>         0.0560
     58 H36         0.9286   10.5025   -3.1946 H         1 <0>         0.0628
     59 H37         2.1582   10.3019   -1.9233 H         1 <0>         0.0636
     60 H38         3.5069   12.1165   -2.9416 H         1 <0>         0.0607
     61 H39         2.2773   12.3171   -4.2128 H         1 <0>         0.0649
     62 H40         1.9710   13.9882   -2.4067 H         1 <0>         0.0565
     63 H41         0.5851   12.8743   -2.4882 H         1 <0>         0.0540
     64 H42         1.8147   12.6737   -1.2169 H         1 <0>         0.0528
     65 N1          2.8294    4.1025   -2.4570 N.4       1 <0>        -0.5191
     66 H43         1.8411    4.0544   -2.1826 H         1 <0>         0.4272
     67 H44         2.9780    3.5378   -3.3015 H         1 <0>         0.4254
@<TRIPOS>BOND
     1    1    2 1
     2    1   25 1
     3    1   26 1
     4    1   27 1
     5    2    3 1
     6    2   28 1
     7    2   29 1
     8    3    4 1
     9    3   30 1
    10    3   31 1
    11    4    5 1
    12    4    6 1
    13    4    7 1
    14    6   32 1
    15    6   33 1
    16    6   34 1
    17    7   12 1
    18    7    8 1
    19    7   35 1
    20    8    9 1
    21    8   36 1
    22    8   37 1
    23    9   10 1
    24    9   38 1
    25    9   39 1
    26   10   11 1
    27   10   40 1
    28   10   65 1
    29   11   12 1
    30   11   41 1
    31   11   42 1
    32   12   43 1
    33   12   44 1
    34   13   18 1
    35   13   14 1
    36   13   45 1
    37   13   65 1
    38   14   15 1
    39   14   46 1
    40   14   47 1
    41   15   16 1
    42   15   48 1
    43   15   49 1
    44   16   17 1
    45   16   19 1
    46   16   50 1
    47   17   18 1
    48   17   51 1
    49   17   52 1
    50   18   53 1
    51   18   54 1
    52   19   20 1
    53   19   21 1
    54   19   22 1
    55   21   55 1
    56   21   56 1
    57   21   57 1
    58   22   23 1
    59   22   58 1
    60   22   59 1
    61   23   24 1
    62   23   60 1
    63   23   61 1
    64   24   62 1
    65   24   63 1
    66   24   64 1
    67   65   66 1
    68   65   67 1
