@<TRIPOS>MOLECULE
ZINC03399101
   32    35     0     0     0
SMALL
USER_CHARGES
N-[(2,2-dichlorocyclopropyl)methyl]BLAHamine
@<TRIPOS>ATOM
      1 C1          2.2864    3.7057   -0.0002 C.ar      1 <0>         0.3638
      2 N1          1.1712    2.9974    0.0070 N.ar      1 <0>        -0.5879
      3 C2          1.1773    1.6737   -0.0002 C.ar      1 <0>         0.4880
      4 C3          2.4244    0.9906   -0.0099 C.ar      1 <0>        -0.2319
      5 C4          2.6727   -0.4603   -0.0240 C.2       1 <0>        -0.1102
      6 C5          3.9555   -0.8563   -0.0415 C.2       1 <0>        -0.1753
      7 S1          4.9044    0.6479   -0.0452 S.3       1 <0>         0.1495
      8 C6          3.5671    1.8104   -0.0237 C.ar      1 <0>         0.1456
      9 N2          3.4714    3.1265   -0.0153 N.ar      1 <0>        -0.5197
     10 C7          4.0874   -2.3558   -0.0531 C.3       1 <0>        -0.0362
     11 C8          2.6922   -2.8641   -0.4780 C.3       1 <0>        -0.1150
     12 C9          1.7840   -1.7075   -0.0167 C.3       1 <0>        -0.0686
     13 N3         -0.0111    0.9658    0.0074 N.pl3     1 <0>        -0.7000
     14 C10        -1.2896    1.6810    0.0173 C.3       1 <0>         0.1449
     15 C11        -2.4389    0.6711    0.0173 C.3       1 <0>        -0.1389
     16 H1         -2.2239   -0.2859    0.4928 H         1 <0>         0.1351
     17 C12        -3.8614    1.2197    0.1453 C.3       1 <0>        -0.1273
     18 C13        -3.3734    0.6643   -1.1942 C.3       1 <0>        -0.0039
     19 Cl1        -3.0359    1.8470   -2.5125 Cl        1 <0>        -0.0793
     20 Cl2        -4.0347   -0.9263   -1.7266 Cl        1 <0>        -0.0864
     21 H2          2.2264    4.7840    0.0063 H         1 <0>         0.2087
     22 H3          4.8417   -2.6657   -0.7763 H         1 <0>         0.0843
     23 H4          4.3394   -2.7232    0.9417 H         1 <0>         0.0899
     24 H5          2.6374   -2.9962   -1.5586 H         1 <0>         0.0797
     25 H6          2.4397   -3.7896    0.0396 H         1 <0>         0.0878
     26 H7          0.9523   -1.5818   -0.7099 H         1 <0>         0.0716
     27 H8          1.4102   -1.8998    0.9890 H         1 <0>         0.0837
     28 H9          0.0021   -0.0041    0.0020 H         1 <0>         0.4123
     29 H10        -1.3516    2.3020    0.9110 H         1 <0>         0.0892
     30 H11        -1.3601    2.3116   -0.8689 H         1 <0>         0.0905
     31 H12        -4.5823    0.6234    0.7047 H         1 <0>         0.1284
     32 H13        -3.9785    2.3001    0.2299 H         1 <0>         0.1275
@<TRIPOS>BOND
     1    1    9 ar
     2    1    2 ar
     3    1   21 1
     4    2    3 ar
     5    3    4 ar
     6    3   13 1
     7    4    8 ar
     8    4    5 1
     9    5   12 1
    10    5    6 2
    11    6    7 1
    12    6   10 1
    13    7    8 1
    14    8    9 ar
    15   10   11 1
    16   10   22 1
    17   10   23 1
    18   11   12 1
    19   11   24 1
    20   11   25 1
    21   12   26 1
    22   12   27 1
    23   13   14 1
    24   13   28 1
    25   14   15 1
    26   14   29 1
    27   14   30 1
    28   15   16 1
    29   15   18 1
    30   15   17 1
    31   17   18 1
    32   17   31 1
    33   17   32 1
    34   18   19 1
    35   18   20 1
