@<TRIPOS>MOLECULE
ZINC67593081
   46    48     0     0     0
SMALL
USER_CHARGES

@<TRIPOS>ATOM
      1 C1         -0.0992    1.4916   -0.0596 C.3       1 <0>        -0.1102
      2 C2         -0.0225   -0.0134   -0.0418 C.ar      1 <0>         0.1554
      3 C3          0.9226   -0.6558   -0.8217 C.ar      1 <0>        -0.1837
      4 C4          0.9901   -2.0376   -0.8029 C.ar      1 <0>        -0.0405
      5 C5          0.0904   -2.7349    0.0126 C.ar      1 <0>        -0.1927
      6 C6         -0.8327   -2.0124    0.7692 C.ar      1 <0>         0.1863
      7 N1         -0.8541   -0.6964    0.7213 N.ar      1 <0>        -0.4850
      8 C7         -1.8097   -2.7437    1.6533 C.3       1 <0>        -0.1066
      9 C8          0.1180   -4.2119    0.0707 C.2       1 <0>         0.5716
     10 O1          0.2143   -4.7763    1.1429 O.2       1 <0>        -0.5220
     11 N2          0.0363   -4.9326   -1.0653 N.am      1 <0>        -0.6079
     12 C9          0.0130   -4.2663   -2.3745 C.3       1 <0>         0.1031
     13 C10        -1.2123   -4.7538   -3.1542 C.3       1 <0>        -0.1422
     14 C11        -1.1904   -6.2823   -3.2272 C.3       1 <0>         0.1526
     15 C12        -1.2554   -6.8632   -1.8128 C.3       1 <0>        -0.1506
     16 C13        -0.0250   -6.3998   -1.0182 C.3       1 <0>         0.1132
     17 N3         -2.3433   -6.7505   -4.0005 N.pl3     1 <0>        -0.7417
     18 C14        -2.2938   -7.9880   -4.6494 C.ar      1 <0>         0.2084
     19 C15        -1.1545   -8.7768   -4.5567 C.ar      1 <0>        -0.1720
     20 C16        -1.1080   -9.9991   -5.1982 C.ar      1 <0>        -0.1031
     21 C17        -2.1962  -10.4383   -5.9331 C.ar      1 <0>         0.0369
     22 C18        -3.3331   -9.6535   -6.0269 C.ar      1 <0>        -0.1028
     23 C19        -3.3860   -8.4329   -5.3827 C.ar      1 <0>        -0.1676
     24 F1         -2.1484  -11.6340   -6.5601 F         1 <0>        -0.1457
     25 H1          0.5569    1.8979    0.7101 H         1 <0>         0.0840
     26 H2          0.2149    1.8598   -1.0363 H         1 <0>         0.0794
     27 H3         -1.1248    1.8054    0.1344 H         1 <0>         0.0812
     28 H4          1.6002   -0.0847   -1.4390 H         1 <0>         0.1434
     29 H5          1.7177   -2.5648   -1.4020 H         1 <0>         0.1410
     30 H6         -1.4061   -2.8101    2.6636 H         1 <0>         0.0890
     31 H7         -2.7557   -2.2028    1.6747 H         1 <0>         0.0806
     32 H8         -1.9738   -3.7473    1.2610 H         1 <0>         0.0742
     33 H9         -0.0488   -3.1871   -2.2342 H         1 <0>         0.0951
     34 H10         0.9196   -4.5137   -2.9267 H         1 <0>         0.0777
     35 H11        -2.1200   -4.4267   -2.6470 H         1 <0>         0.0746
     36 H12        -1.1896   -4.3410   -4.1627 H         1 <0>         0.0858
     37 H13        -0.2709   -6.6096   -3.7123 H         1 <0>         0.0836
     38 H14        -2.1627   -6.5163   -1.3183 H         1 <0>         0.0727
     39 H15        -1.2634   -7.9519   -1.8666 H         1 <0>         0.0830
     40 H16         0.8787   -6.8177   -1.4620 H         1 <0>         0.0732
     41 H17        -0.1118   -6.7289    0.0173 H         1 <0>         0.0993
     42 H18        -3.1409   -6.2020   -4.0623 H         1 <0>         0.4011
     43 H19        -0.3053   -8.4344   -3.9839 H         1 <0>         0.1303
     44 H20        -0.2221  -10.6126   -5.1267 H         1 <0>         0.1339
     45 H21        -4.1806   -9.9979   -6.6010 H         1 <0>         0.1343
     46 H22        -4.2747   -7.8231   -5.4524 H         1 <0>         0.1295
@<TRIPOS>BOND
     1    1    2 1
     2    1   25 1
     3    1   26 1
     4    1   27 1
     5    2    7 ar
     6    2    3 ar
     7    3    4 ar
     8    3   28 1
     9    4    5 ar
    10    4   29 1
    11    5    6 ar
    12    5    9 1
    13    6    7 ar
    14    6    8 1
    15    8   30 1
    16    8   31 1
    17    8   32 1
    18    9   10 2
    19    9   11 am
    20   11   16 1
    21   11   12 1
    22   12   13 1
    23   12   33 1
    24   12   34 1
    25   13   14 1
    26   13   35 1
    27   13   36 1
    28   14   15 1
    29   14   17 1
    30   14   37 1
    31   15   16 1
    32   15   38 1
    33   15   39 1
    34   16   40 1
    35   16   41 1
    36   17   18 1
    37   17   42 1
    38   18   23 ar
    39   18   19 ar
    40   19   20 ar
    41   19   43 1
    42   20   21 ar
    43   20   44 1
    44   21   22 ar
    45   21   24 1
    46   22   23 ar
    47   22   45 1
    48   23   46 1
