@<TRIPOS>MOLECULE
ZINC03991722
   75    76     0     0     0
SMALL
USER_CHARGES
4-[2,4-bis(1,1-dimethylpropyl)phenoxy]-N-(3-hydroxy-4-methylsulfonylamino-phenyl)-butanamide
@<TRIPOS>ATOM
      1 C1         12.7558   -1.4376    0.5297 C.3       1 <0>        -0.1579
      2 C2         11.3091   -0.9464    0.4465 C.3       1 <0>        -0.1151
      3 C3         11.2961    0.5716    0.2557 C.3       1 <0>        -0.0200
      4 C4         12.0314    0.9294   -1.0375 C.3       1 <0>        -0.1410
      5 C5         11.9945    1.2406    1.4412 C.3       1 <0>        -0.1411
      6 C6          9.8713    1.0554    0.1737 C.ar      1 <0>        -0.1029
      7 C7          8.8288    0.1520    0.2716 C.ar      1 <0>        -0.0876
      8 C8          7.5220    0.5929    0.1964 C.ar      1 <0>        -0.2052
      9 C9          7.2556    1.9434    0.0228 C.ar      1 <0>         0.1297
     10 C10         8.3030    2.8469   -0.0804 C.ar      1 <0>        -0.0968
     11 C11         9.6084    2.4016    0.0012 C.ar      1 <0>        -0.0791
     12 C12         8.0174    4.3137   -0.2751 C.3       1 <0>        -0.0119
     13 C13         7.1956    4.8344    0.9058 C.3       1 <0>        -0.1421
     14 C14         9.3369    5.0838   -0.3573 C.3       1 <0>        -0.1477
     15 C15         7.2295    4.5121   -1.5716 C.3       1 <0>        -0.1110
     16 C16         6.9395    6.0013   -1.7693 C.3       1 <0>        -0.1552
     17 O1          5.9706    2.3797   -0.0515 O.3       1 <0>        -0.3029
     18 C17         4.9431    1.3925    0.0568 C.3       1 <0>         0.0570
     19 C18         3.5742    2.0676   -0.0488 C.3       1 <0>        -0.1046
     20 C19         2.4740    1.0107    0.0671 C.3       1 <0>        -0.1363
     21 C20         1.1256    1.6756   -0.0369 C.2       1 <0>         0.5141
     22 O2          1.0519    2.8768   -0.1887 O.2       1 <0>        -0.5117
     23 N1          0.0017    0.9357    0.0389 N.am      1 <0>        -0.6743
     24 C21        -1.2516    1.5626    0.0338 C.ar      1 <0>         0.1452
     25 C22        -2.2946    1.0344    0.7826 C.ar      1 <0>        -0.1209
     26 C23        -3.5299    1.6535    0.7830 C.ar      1 <0>        -0.1411
     27 C24        -3.7334    2.7982    0.0266 C.ar      1 <0>         0.1117
     28 C25        -2.6898    3.3269   -0.7297 C.ar      1 <0>         0.1072
     29 C26        -1.4512    2.7083   -0.7247 C.ar      1 <0>        -0.1241
     30 O3         -2.8873    4.4495   -1.4716 O.3       1 <0>        -0.4870
     31 N2         -4.9883    3.4230    0.0236 N.pl3     1 <0>        -1.0477
     32 S1         -5.9038    3.4485    1.4033 S.o2      1 <0>         2.6108
     33 O4         -7.0441    4.2271    1.0674 O.2       1 <0>        -0.9494
     34 O5         -6.0420    2.0832    1.7721 O.2       1 <0>        -0.9492
     35 C27        -4.8857    4.3250    2.6222 C.3       1 <0>        -0.6675
     36 H1         13.2796   -1.1827   -0.3916 H         1 <0>         0.0579
     37 H2         13.2533   -0.9609    1.3743 H         1 <0>         0.0579
     38 H3         12.7650   -2.5190    0.6656 H         1 <0>         0.0529
     39 H4         10.7853   -1.2013    1.3677 H         1 <0>         0.0639
     40 H5         10.8116   -1.4230   -0.3982 H         1 <0>         0.0639
     41 H6         12.0221    2.0109   -1.1734 H         1 <0>         0.0553
     42 H7         13.0620    0.5795   -0.9782 H         1 <0>         0.0614
     43 H8         11.5339    0.4528   -1.8821 H         1 <0>         0.0553
     44 H9         11.4707    0.9857    2.3625 H         1 <0>         0.0553
     45 H10        13.0251    0.8907    1.5005 H         1 <0>         0.0614
     46 H11        11.9852    2.3221    1.3053 H         1 <0>         0.0553
     47 H12         9.0367   -0.8991    0.4067 H         1 <0>         0.1261
     48 H13         6.7083   -0.1132    0.2722 H         1 <0>         0.1246
     49 H14        10.4243    3.1052   -0.0746 H         1 <0>         0.1310
     50 H15         7.7569    4.6931    1.8294 H         1 <0>         0.0489
     51 H16         6.9890    5.8954    0.7649 H         1 <0>         0.0583
     52 H17         6.2556    4.2858    0.9643 H         1 <0>         0.0689
     53 H18         9.9223    4.7128   -1.1986 H         1 <0>         0.0563
     54 H19         9.1302    6.1447   -0.4981 H         1 <0>         0.0621
     55 H20         9.8982    4.9425    0.5664 H         1 <0>         0.0559
     56 H21         7.8149    4.1412   -2.4129 H         1 <0>         0.0557
     57 H22         6.2895    3.9635   -1.5131 H         1 <0>         0.0758
     58 H23         7.8795    6.5499   -1.8278 H         1 <0>         0.0546
     59 H24         6.3782    6.1427   -2.6930 H         1 <0>         0.0512
     60 H25         6.3541    6.3723   -0.9280 H         1 <0>         0.0574
     61 H26         5.0254    0.8864    1.0186 H         1 <0>         0.0619
     62 H27         5.0523    0.6647   -0.7473 H         1 <0>         0.0619
     63 H28         3.4919    2.5738   -1.0106 H         1 <0>         0.0837
     64 H29         3.4650    2.7954    0.7553 H         1 <0>         0.0837
     65 H30         2.5563    0.5045    1.0289 H         1 <0>         0.1024
     66 H31         2.5832    0.2829   -0.7370 H         1 <0>         0.1019
     67 H32         0.0602   -0.0310    0.0929 H         1 <0>         0.4147
     68 H33        -2.1391    0.1406    1.3686 H         1 <0>         0.1386
     69 H34        -4.3388    1.2433    1.3694 H         1 <0>         0.1709
     70 H35        -0.6409    3.1164   -1.3106 H         1 <0>         0.1521
     71 H36        -3.1901    4.2767   -2.3736 H         1 <0>         0.3906
     72 H37        -5.3203    3.8403   -0.7866 H         1 <0>         0.4272
     73 H38        -4.6724    5.3311    2.2612 H         1 <0>         0.1331
     74 H39        -5.4231    4.3849    3.5686 H         1 <0>         0.1350
     75 H40        -3.9500    3.7857    2.7692 H         1 <0>         0.1303
@<TRIPOS>BOND
     1    1    2 1
     2    1   36 1
     3    1   37 1
     4    1   38 1
     5    2    3 1
     6    2   39 1
     7    2   40 1
     8    3    4 1
     9    3    5 1
    10    3    6 1
    11    4   41 1
    12    4   42 1
    13    4   43 1
    14    5   44 1
    15    5   45 1
    16    5   46 1
    17    6   11 ar
    18    6    7 ar
    19    7    8 ar
    20    7   47 1
    21    8    9 ar
    22    8   48 1
    23    9   10 ar
    24    9   17 1
    25   10   11 ar
    26   10   12 1
    27   11   49 1
    28   12   13 1
    29   12   14 1
    30   12   15 1
    31   13   50 1
    32   13   51 1
    33   13   52 1
    34   14   53 1
    35   14   54 1
    36   14   55 1
    37   15   16 1
    38   15   56 1
    39   15   57 1
    40   16   58 1
    41   16   59 1
    42   16   60 1
    43   17   18 1
    44   18   19 1
    45   18   61 1
    46   18   62 1
    47   19   20 1
    48   19   63 1
    49   19   64 1
    50   20   21 1
    51   20   65 1
    52   20   66 1
    53   21   22 2
    54   21   23 am
    55   23   24 1
    56   23   67 1
    57   24   29 ar
    58   24   25 ar
    59   25   26 ar
    60   25   68 1
    61   26   27 ar
    62   26   69 1
    63   27   28 ar
    64   27   31 1
    65   28   29 ar
    66   28   30 1
    67   29   70 1
    68   30   71 1
    69   31   32 1
    70   31   72 1
    71   32   33 2
    72   32   34 2
    73   32   35 1
    74   35   73 1
    75   35   74 1
    76   35   75 1
