@<TRIPOS>MOLECULE
ZINC03833700
   28    29     0     0     0
SMALL
USER_CHARGES
4-[2-(4-chlorophenyl)vinyl]-6-(trifluoromethyl)-1H-pyrimidin-2-one
@<TRIPOS>ATOM
      1 C1         -1.3199    3.1926    0.0315 C.ar      1 <0>        -0.0851
      2 C2         -2.5266    3.8590    0.0364 C.ar      1 <0>        -0.1134
      3 C3         -3.7150    3.1468    0.0382 C.ar      1 <0>        -0.0210
      4 C4         -3.7000    1.7615    0.0297 C.ar      1 <0>        -0.1135
      5 C5         -2.5007    1.0820    0.0198 C.ar      1 <0>        -0.0758
      6 C6         -1.2972    1.7944    0.0180 C.ar      1 <0>        -0.0812
      7 C7         -0.0126    1.0758    0.0080 C.2       1 <0>         0.0012
      8 C8          1.1447    1.7652    0.0006 C.2       1 <0>        -0.1620
      9 C9          2.4256    1.0487   -0.0155 C.2       1 <0>         0.3128
     10 C10         3.6434    1.7672   -0.0232 C.2       1 <0>        -0.2041
     11 C11         4.8100    1.0784   -0.0376 C.2       1 <0>         0.1158
     12 N1          4.7804   -0.2842   -0.0442 N.am      1 <0>        -0.6167
     13 H1          5.6374   -0.7995   -0.0551 H         1 <0>         0.4324
     14 C12         3.6061   -0.9408   -0.0361 C.2       1 <0>         0.6420
     15 O1          3.6016   -2.1607   -0.0413 O.2       1 <0>        -0.5138
     16 N2          2.4493   -0.2827   -0.0173 N.2       1 <0>        -0.5285
     17 C13         6.1268    1.8114   -0.0467 C.3       1 <0>         0.5130
     18 F1          5.8928    3.1906   -0.0380 F         1 <0>        -0.1516
     19 F2          6.8658    1.4566    1.0869 F         1 <0>        -0.1599
     20 F3          6.8440    1.4673   -1.1975 F         1 <0>        -0.1599
     21 Cl1        -5.2300    3.9943    0.0517 Cl        1 <0>        -0.0620
     22 H2         -0.3943    3.7491    0.0343 H         1 <0>         0.1397
     23 H3         -2.5457    4.9388    0.0435 H         1 <0>         0.1391
     24 H4         -4.6301    1.2127    0.0311 H         1 <0>         0.1394
     25 H5         -2.4904    0.0021    0.0139 H         1 <0>         0.1409
     26 H6          0.0021   -0.0041    0.0020 H         1 <0>         0.1460
     27 H7          1.1301    2.8451    0.0065 H         1 <0>         0.1480
     28 H8          3.6436    2.8471   -0.0182 H         1 <0>         0.1783
@<TRIPOS>BOND
     1    1    6 ar
     2    1    2 ar
     3    1   22 1
     4    2    3 ar
     5    2   23 1
     6    3    4 ar
     7    3   21 1
     8    4    5 ar
     9    4   24 1
    10    5    6 ar
    11    5   25 1
    12    6    7 1
    13    7    8 2
    14    7   26 1
    15    8    9 1
    16    8   27 1
    17    9   16 2
    18    9   10 1
    19   10   11 2
    20   10   28 1
    21   11   12 1
    22   11   17 1
    23   12   13 1
    24   12   14 am
    25   14   15 2
    26   14   16 1
    27   17   18 1
    28   17   19 1
    29   17   20 1
