@<TRIPOS>MOLECULE
ZINC03376312
   58    60     0     0     0
SMALL
USER_CHARGES
(2R)-N-(5-chloro-2-methoxy-phenyl)-2-[[4-(4-chlorophenyl)-5-[(1S)-1-dimethylaminoethyl]-1,2,4-triazol-3-yl]sulfanyl]propanamide
@<TRIPOS>ATOM
      1 C1         -9.4190    0.4529    0.5569 C.3       1 <0>        -0.1808
      2 C2         -8.6695    0.2982   -0.7680 C.3       1 <0>         0.1375
      3 H1         -9.0009    1.0512   -1.4982 H         1 <0>         0.1460
      4 C3         -7.1887    0.4405   -0.5270 C.2       1 <0>         0.1217
      5 N1         -6.4060   -0.4473    0.0183 N.2       1 <0>        -0.2506
      6 N2         -5.2017   -0.0022    0.0719 N.2       1 <0>        -0.2720
      7 C4         -5.1478    1.2053   -0.4408 C.2       1 <0>         0.1826
      8 N3         -6.4169    1.5292   -0.8354 N.pl3     1 <0>        -0.3970
      9 C5         -6.8392    2.7256   -1.4338 C.ar      1 <0>         0.0752
     10 C6         -7.7261    3.5605   -0.7681 C.ar      1 <0>        -0.0874
     11 C7         -8.1368    4.7403   -1.3573 C.ar      1 <0>        -0.0925
     12 C8         -7.6730    5.0851   -2.6147 C.ar      1 <0>        -0.0104
     13 C9         -6.7929    4.2518   -3.2824 C.ar      1 <0>        -0.0901
     14 C10        -6.3754    3.0736   -2.6950 C.ar      1 <0>        -0.0811
     15 Cl1        -8.1957    6.5657   -3.3552 Cl        1 <0>        -0.0325
     16 S1         -3.7142    2.2194   -0.5861 S.3       1 <0>         0.1368
     17 C11        -2.4761    1.1197    0.1445 C.3       1 <0>        -0.1222
     18 H2         -2.3446    0.1101   -0.2719 H         1 <0>         0.1329
     19 C12        -2.7992    0.8991    1.6237 C.3       1 <0>        -0.1514
     20 C13        -1.1109    1.7449    0.0164 C.2       1 <0>         0.5313
     21 O1         -1.0018    2.9491   -0.0786 O.2       1 <0>        -0.5075
     22 N4         -0.0111    0.9658    0.0074 N.am      1 <0>        -0.6626
     23 C14         1.2617    1.5510   -0.0237 C.ar      1 <0>         0.1257
     24 C15         1.4683    2.7294   -0.7258 C.ar      1 <0>        -0.0777
     25 C16         2.7246    3.3070   -0.7518 C.ar      1 <0>        -0.0536
     26 C17         3.7790    2.7070   -0.0861 C.ar      1 <0>        -0.0773
     27 C18         3.5807    1.5300    0.6114 C.ar      1 <0>        -0.1782
     28 C19         2.3240    0.9478    0.6455 C.ar      1 <0>         0.1139
     29 O2          2.1280   -0.2105    1.3307 O.3       1 <0>        -0.3163
     30 C20         3.2628   -0.7724    1.9931 C.3       1 <0>         0.0220
     31 Cl2         2.9807    4.7846   -1.6263 Cl        1 <0>        -0.0580
     32 N5         -8.9480   -1.0276   -1.3362 N.4       1 <0>        -0.3996
     33 C21       -10.3852   -1.2024   -1.5848 C.3       1 <0>        -0.0499
     34 C22        -8.1707   -1.2483   -2.5630 C.3       1 <0>        -0.0472
     35 H3        -10.4999    0.3490    0.3810 H         1 <0>         0.1001
     36 H4         -9.2105    1.4456    0.9824 H         1 <0>         0.1057
     37 H5         -9.0855   -0.3247    1.2598 H         1 <0>         0.0970
     38 H6         -8.0918    3.2897    0.2113 H         1 <0>         0.1422
     39 H7         -8.8237    5.3922   -0.8380 H         1 <0>         0.1543
     40 H8         -6.4326    4.5228   -4.2638 H         1 <0>         0.1550
     41 H9         -5.6887    2.4233   -3.2167 H         1 <0>         0.1454
     42 H10        -2.0467    0.2308    2.0676 H         1 <0>         0.0815
     43 H11        -3.7957    0.4428    1.7172 H         1 <0>         0.0886
     44 H12        -2.7875    1.8652    2.1496 H         1 <0>         0.0741
     45 H13        -0.1127   -0.1294    0.0245 H         1 <0>         0.4442
     46 H14         0.6477    3.1974   -1.2492 H         1 <0>         0.1558
     47 H15         4.7595    3.1591   -0.1118 H         1 <0>         0.1414
     48 H16         4.4057    1.0640    1.1296 H         1 <0>         0.1451
     49 H17         2.9666   -1.7001    2.5046 H         1 <0>         0.1070
     50 H18         3.6494   -0.0542    2.7311 H         1 <0>         0.0612
     51 H19         4.0459   -0.9954    1.2534 H         1 <0>         0.0616
     52 H20       -10.5651   -2.2012   -2.0091 H         1 <0>         0.1332
     53 H21       -10.7307   -0.4353   -2.2934 H         1 <0>         0.1215
     54 H22       -10.9360   -1.1016   -0.6380 H         1 <0>         0.1303
     55 H23        -8.3979   -2.2461   -2.9665 H         1 <0>         0.1337
     56 H24        -7.0969   -1.1812   -2.3338 H         1 <0>         0.1174
     57 H25        -8.4353   -0.4828   -3.3074 H         1 <0>         0.1180
     58 H26        -8.6382   -1.7833   -0.5993 H         1 <0>         0.4558
@<TRIPOS>BOND
     1    1    2 1
     2    1   35 1
     3    1   36 1
     4    1   37 1
     5    2    3 1
     6    2    4 1
     7    2   32 1
     8    4    8 1
     9    4    5 2
    10    5    6 1
    11    6    7 2
    12    7    8 1
    13    7   16 1
    14    8    9 1
    15    9   14 ar
    16    9   10 ar
    17   10   11 ar
    18   10   38 1
    19   11   12 ar
    20   11   39 1
    21   12   13 ar
    22   12   15 1
    23   13   14 ar
    24   13   40 1
    25   14   41 1
    26   16   17 1
    27   17   18 1
    28   17   19 1
    29   17   20 1
    30   19   42 1
    31   19   43 1
    32   19   44 1
    33   20   21 2
    34   20   22 am
    35   22   23 1
    36   22   45 1
    37   23   28 ar
    38   23   24 ar
    39   24   25 ar
    40   24   46 1
    41   25   26 ar
    42   25   31 1
    43   26   27 ar
    44   26   47 1
    45   27   28 ar
    46   27   48 1
    47   28   29 1
    48   29   30 1
    49   30   49 1
    50   30   50 1
    51   30   51 1
    52   32   33 1
    53   32   34 1
    54   32   58 1
    55   33   52 1
    56   33   53 1
    57   33   54 1
    58   34   55 1
    59   34   56 1
    60   34   57 1
