@<TRIPOS>MOLECULE
ZINC20394319
   49    52     0     0     0
SMALL
USER_CHARGES
3-cyclohexyl-8-(p-tolyl)-7-thioxo-2,4-dihydro-1H-pyrimido[6,5-d]pyrimidin-5-one
@<TRIPOS>ATOM
      1 C1          0.6992   -5.3521   -4.9568 C.3       1 <0>        -0.1245
      2 C2          1.1748   -4.0696   -4.3242 C.ar      1 <0>        -0.0560
      3 C3          2.4115   -4.0218   -3.7073 C.ar      1 <0>        -0.1086
      4 C4          2.8503   -2.8478   -3.1270 C.ar      1 <0>        -0.0724
      5 C5          2.0481   -1.7150   -3.1630 C.ar      1 <0>         0.0940
      6 C6          0.8042   -1.7679   -3.7778 C.ar      1 <0>        -0.0840
      7 C7          0.3734   -2.9433   -4.3613 C.ar      1 <0>        -0.1088
      8 N1          2.4904   -0.5228   -2.5754 N.pl3     1 <0>        -0.4519
      9 C8          2.1640   -0.2452   -1.2632 C.2       1 <0>         0.4772
     10 C9          2.6099    0.9126   -0.7025 C.2       1 <0>        -0.3424
     11 C10         3.3804    1.7988   -1.4767 C.2       1 <0>         0.5566
     12 O1          3.7854    2.8416   -0.9917 O.2       1 <0>        -0.5129
     13 N2          3.6694    1.4910   -2.7554 N.am      1 <0>        -0.6248
     14 H1          4.2685    2.1828   -3.3657 H         1 <0>         0.4751
     15 C11         3.2293    0.3394   -3.2942 C.2       1 <0>         0.5381
     16 S1          3.6161   -0.0329   -4.9198 S.2       1 <0>        -0.5405
     17 C12         2.3061    1.2683    0.7295 C.3       1 <0>         0.1341
     18 N3          1.2254    0.4059    1.2296 N.3       1 <0>        -0.5404
     19 C13         1.5105   -0.9951    0.8772 C.3       1 <0>         0.2695
     20 N4          1.4005   -1.1494   -0.5759 N.pl3     1 <0>        -0.7094
     21 C14         1.0577    0.5601    2.6809 C.3       1 <0>         0.0927
     22 C15         0.8616    2.0397    3.0172 C.3       1 <0>        -0.1161
     23 C16         0.6870    2.2003    4.5287 C.3       1 <0>        -0.1184
     24 C17         1.9330    1.6754    5.2447 C.3       1 <0>        -0.1239
     25 C18         2.1292    0.1957    4.9083 C.3       1 <0>        -0.1144
     26 C19         2.3038    0.0351    3.3968 C.3       1 <0>        -0.1575
     27 H2          1.4655   -6.1307   -4.8279 H         1 <0>         0.0703
     28 H3          0.5205   -5.1875   -6.0296 H         1 <0>         0.0776
     29 H4         -0.2355   -5.6742   -4.4745 H         1 <0>         0.0759
     30 H5          3.0349   -4.9032   -3.6796 H         1 <0>         0.1345
     31 H6          3.8163   -2.8111   -2.6453 H         1 <0>         0.1265
     32 H7          0.1760   -0.8898   -3.8033 H         1 <0>         0.1282
     33 H8         -0.5921   -2.9839   -4.8435 H         1 <0>         0.1350
     34 H9          3.2070    1.1205    1.3431 H         1 <0>         0.0541
     35 H10         1.9919    2.3209    0.7871 H         1 <0>         0.1013
     36 H11         2.5283   -1.2554    1.2033 H         1 <0>         0.0558
     37 H12         0.7855   -1.6539    1.3775 H         1 <0>         0.1055
     38 H13         0.7530   -1.9318   -0.9985 H         1 <0>         0.4539
     39 H14         0.1711   -0.0226    2.9715 H         1 <0>         0.0905
     40 H15         1.7420    2.6105    2.6871 H         1 <0>         0.0688
     41 H16        -0.0342    2.4171    2.5024 H         1 <0>         0.0735
     42 H17         0.5460    3.2641    4.7705 H         1 <0>         0.0670
     43 H18        -0.1934    1.6294    4.8588 H         1 <0>         0.0639
     44 H19         2.8134    2.2463    4.9146 H         1 <0>         0.0628
     45 H20         1.8074    1.7909    6.3314 H         1 <0>         0.0641
     46 H21         3.0251   -0.1817    5.4230 H         1 <0>         0.0633
     47 H22         1.2489   -0.3753    5.2384 H         1 <0>         0.0640
     48 H23         2.4448   -1.0287    3.1549 H         1 <0>         0.0631
     49 H24         3.1842    0.6060    3.0667 H         1 <0>         0.0698
@<TRIPOS>BOND
     1    1    2 1
     2    1   27 1
     3    1   28 1
     4    1   29 1
     5    2    7 ar
     6    2    3 ar
     7    3    4 ar
     8    3   30 1
     9    4    5 ar
    10    4   31 1
    11    5    6 ar
    12    5    8 1
    13    6    7 ar
    14    6   32 1
    15    7   33 1
    16    8   15 1
    17    8    9 1
    18    9   20 1
    19    9   10 2
    20   10   11 1
    21   10   17 1
    22   11   12 2
    23   11   13 am
    24   13   14 1
    25   13   15 1
    26   15   16 2
    27   17   18 1
    28   17   34 1
    29   17   35 1
    30   18   19 1
    31   18   21 1
    32   19   20 1
    33   19   36 1
    34   19   37 1
    35   20   38 1
    36   21   26 1
    37   21   22 1
    38   21   39 1
    39   22   23 1
    40   22   40 1
    41   22   41 1
    42   23   24 1
    43   23   42 1
    44   23   43 1
    45   24   25 1
    46   24   44 1
    47   24   45 1
    48   25   26 1
    49   25   46 1
    50   25   47 1
    51   26   48 1
    52   26   49 1
