@<TRIPOS>MOLECULE
ZINC03047125
   46    49     0     0     0
SMALL
USER_CHARGES
4-(4-chlorophenyl)-8-[2-[[3-chloro-5-(trifluoromethyl)-2-pyridyl]amino]ethyl]-5-thia-3,8-diazabicyclo[4.3.0]nona-1,3-diene-7,9-dione
@<TRIPOS>ATOM
      1 C1         -3.4791    1.0679    3.0240 C.ar      1 <0>        -0.0583
      2 C2         -4.5167    0.7797    3.8848 C.ar      1 <0>        -0.1157
      3 C3         -5.7823    0.5182    3.3859 C.ar      1 <0>         0.0046
      4 C4         -6.0155    0.5500    2.0206 C.ar      1 <0>        -0.1201
      5 C5         -4.9879    0.8426    1.1494 C.ar      1 <0>        -0.0302
      6 C6         -3.7089    1.1073    1.6462 C.ar      1 <0>        -0.0877
      7 C7         -2.6045    1.4212    0.7196 C.2       1 <0>         0.2809
      8 N1         -2.8407    1.4478   -0.5729 N.2       1 <0>        -0.5159
      9 C8         -1.9439    1.7219   -1.5143 C.2       1 <0>         0.2446
     10 C9         -0.6155    1.6485   -1.2742 C.2       1 <0>        -0.3232
     11 C10        -0.0127    1.0858    0.0080 C.3       1 <0>        -0.1026
     12 H1          0.0021   -0.0041    0.0020 H         1 <0>         0.1573
     13 S1         -0.9882    1.7289    1.3928 S.3       1 <0>        -0.0162
     14 C11         1.3820    1.6593   -0.0022 C.2       1 <0>         0.5599
     15 O1          2.1755    1.6514    0.9145 O.2       1 <0>        -0.4404
     16 N2          1.5744    2.1826   -1.2299 N.am      1 <0>        -0.5710
     17 C12         0.4759    2.1369   -2.0003 C.2       1 <0>         0.5925
     18 O2          0.4350    2.4748   -3.1699 O.2       1 <0>        -0.4755
     19 C13         2.8517    2.7433   -1.6776 C.3       1 <0>         0.0965
     20 C14         3.6937    1.6415   -2.3240 C.3       1 <0>         0.0606
     21 N3          4.9710    2.2022   -2.7716 N.pl3     1 <0>        -0.6711
     22 C15         5.9090    1.3855   -3.3937 C.ar      1 <0>         0.4826
     23 C16         7.1188    1.9259   -3.8218 C.ar      1 <0>        -0.1311
     24 C17         8.0450    1.1001   -4.4342 C.ar      1 <0>         0.0959
     25 C18         7.7248   -0.2401   -4.6084 C.ar      1 <0>        -0.2309
     26 C19         6.5044   -0.7070   -4.1643 C.ar      1 <0>         0.2234
     27 C20         8.7000   -1.1751   -5.2762 C.3       1 <0>         0.5313
     28 F1          8.1498   -2.4601   -5.3330 F         1 <0>        -0.1629
     29 F2          8.9651   -0.7235   -6.5735 F         1 <0>        -0.1543
     30 F3          9.8904   -1.2094   -4.5420 F         1 <0>        -0.1545
     31 Cl1         7.4630    3.6109   -3.5848 Cl        1 <0>         0.0408
     32 Cl2        -7.0820    0.1495    4.4762 Cl        1 <0>        -0.0449
     33 H2         -2.4919    1.2672    3.4140 H         1 <0>         0.1438
     34 H3         -4.3415    0.7533    4.9502 H         1 <0>         0.1487
     35 H4         -7.0044    0.3449    1.6380 H         1 <0>         0.1484
     36 H5         -5.1709    0.8668    0.0853 H         1 <0>         0.1531
     37 H6         -2.2853    2.0112   -2.4973 H         1 <0>         0.1869
     38 H7          2.6665    3.5334   -2.4053 H         1 <0>         0.1193
     39 H8          3.3872    3.1554   -0.8223 H         1 <0>         0.1171
     40 H9          3.8789    0.8515   -1.5962 H         1 <0>         0.0998
     41 H10         3.1582    1.2295   -3.1792 H         1 <0>         0.1041
     42 H11         5.1624    3.1432   -2.6341 H         1 <0>         0.4420
     43 H12         8.9936    1.4897   -4.7730 H         1 <0>         0.1964
     44 H13         6.2515   -1.7484   -4.2982 H         1 <0>         0.2189
     45 N4          5.5726    0.0734   -3.5537 N.ar      1 <0>        -0.5239
     46 H14         4.6721   -0.3019   -3.2333 H         1 <0>         0.4808
@<TRIPOS>BOND
     1    1    6 ar
     2    1    2 ar
     3    1   33 1
     4    2    3 ar
     5    2   34 1
     6    3    4 ar
     7    3   32 1
     8    4    5 ar
     9    4   35 1
    10    5    6 ar
    11    5   36 1
    12    6    7 1
    13    7   13 1
    14    7    8 2
    15    8    9 1
    16    9   10 2
    17    9   37 1
    18   10   17 1
    19   10   11 1
    20   11   12 1
    21   11   13 1
    22   11   14 1
    23   14   15 2
    24   14   16 am
    25   16   17 am
    26   16   19 1
    27   17   18 2
    28   19   20 1
    29   19   38 1
    30   19   39 1
    31   20   21 1
    32   20   40 1
    33   20   41 1
    34   21   22 1
    35   21   42 1
    36   22   23 ar
    37   22   45 ar
    38   23   24 ar
    39   23   31 1
    40   24   25 ar
    41   24   43 1
    42   25   26 ar
    43   25   27 1
    44   26   44 1
    45   26   45 ar
    46   27   28 1
    47   27   29 1
    48   27   30 1
    49   45   46 1
