@<TRIPOS>MOLECULE
ZINC02574883
   17    17     0     0     0
SMALL
USER_CHARGES
4-bromo-2,5-difluoro-benzenesulfonamide
@<TRIPOS>ATOM
      1 C1         -3.5766    0.4439    1.1061 C.ar      1 <0>        -0.0152
      2 C2         -4.5799   -0.5101    1.1059 C.ar      1 <0>         0.1031
      3 C3         -4.7378   -1.3486    0.0148 C.ar      1 <0>        -0.0559
      4 C4         -3.8931   -1.2326   -1.0739 C.ar      1 <0>        -0.1157
      5 C5         -2.8935   -0.2750   -1.0751 C.ar      1 <0>         0.1929
      6 C6         -2.7327    0.5596    0.0181 C.ar      1 <0>        -0.6785
      7 S1         -1.4563    1.7742    0.0186 S.o2      1 <0>         2.7067
      8 O1         -1.5359    2.4465    1.2680 O.2       1 <0>        -0.9474
      9 O2         -1.5477    2.4600   -1.2226 O.2       1 <0>        -0.9406
     10 N1         -0.0111    0.9658    0.0074 N.pl3     1 <0>        -1.2439
     11 F1         -2.0717   -0.1578   -2.1410 F         1 <0>        -0.1042
     12 Br1        -6.1084   -2.6514    0.0137 Br        1 <0>         0.0117
     13 F2         -5.4052   -0.6227    2.1696 F         1 <0>        -0.1080
     14 H1         -3.4537    1.0980    1.9566 H         1 <0>         0.1804
     15 H2         -4.0158   -1.8862   -1.9248 H         1 <0>         0.1699
     16 H3          0.0021   -0.0041    0.0020 H         1 <0>         0.4177
     17 H4          0.8223    1.4622    0.0021 H         1 <0>         0.4268
@<TRIPOS>BOND
     1    1    6 ar
     2    1    2 ar
     3    1   14 1
     4    2    3 ar
     5    2   13 1
     6    3    4 ar
     7    3   12 1
     8    4    5 ar
     9    4   15 1
    10    5    6 ar
    11    5   11 1
    12    6    7 1
    13    7    8 2
    14    7    9 2
    15    7   10 1
    16   10   16 1
    17   10   17 1
