@<TRIPOS>MOLECULE
ZINC02766725
   31    33     0     0     0
SMALL
USER_CHARGES

@<TRIPOS>ATOM
      1 C1         -0.0167    1.3780    0.0096 C.ar      1 <0>        -0.0877
      2 C2          1.1706    2.0863    0.0021 C.ar      1 <0>        -0.0959
      3 C3          2.3780    1.4119   -0.0130 C.ar      1 <0>        -0.0268
      4 C4          2.3968    0.0272   -0.0206 C.ar      1 <0>        -0.0293
      5 C5          1.2081   -0.6797   -0.0130 C.ar      1 <0>        -0.0970
      6 C6          0.0021   -0.0041    0.0020 C.ar      1 <0>        -0.1038
      7 C7         -1.2929   -0.7748    0.0107 C.3       1 <0>         0.1998
      8 H1         -2.0974   -0.1350    0.3732 H         1 <0>         0.1246
      9 C8         -1.6163   -1.2544   -1.4088 C.3       1 <0>        -0.1498
     10 C9         -0.4578   -2.1000   -1.9498 C.3       1 <0>         0.1274
     11 H2          0.4037   -1.4598   -2.1400 H         1 <0>         0.1280
     12 N1         -0.1047   -3.1145   -0.9532 N.pl3     1 <0>        -0.4091
     13 C10        -0.4419   -3.0326    0.3604 C.2       1 <0>         0.3578
     14 C11         0.0381   -4.1315    0.9827 C.2       1 <0>        -0.3164
     15 C12         0.6920   -4.9117    0.0203 C.2       1 <0>         0.0841
     16 N2          0.6053   -4.3003   -1.1366 N.2       1 <0>        -0.2868
     17 N3         -1.1625   -1.9538    0.8896 N.pl3     1 <0>        -0.7280
     18 C13        -0.8856   -2.7830   -3.2503 C.3       1 <0>         0.4560
     19 F1         -1.2331   -1.8113   -4.1949 F         1 <0>        -0.1741
     20 F2          0.1730   -3.5541   -3.7423 F         1 <0>        -0.1589
     21 F3         -1.9880   -3.6081   -3.0030 F         1 <0>        -0.1731
     22 Cl1         3.9115   -0.8207   -0.0401 Cl        1 <0>        -0.0385
     23 Cl2         3.8691    2.3008   -0.0231 Cl        1 <0>        -0.0411
     24 H3         -0.9593    1.9049    0.0259 H         1 <0>         0.1446
     25 H4          1.1552    3.1661    0.0076 H         1 <0>         0.1480
     26 H5          1.2220   -1.7596   -0.0193 H         1 <0>         0.1490
     27 H6         -2.5253   -1.8555   -1.3897 H         1 <0>         0.1053
     28 H7         -1.7680   -0.3912   -2.0569 H         1 <0>         0.1209
     29 H8         -0.0639   -4.3660    2.0320 H         1 <0>         0.1532
     30 H9          1.1844   -5.8559    0.2006 H         1 <0>         0.1900
     31 H10        -1.5538   -1.9785    1.7768 H         1 <0>         0.4280
@<TRIPOS>BOND
     1    1    6 ar
     2    1    2 ar
     3    1   24 1
     4    2    3 ar
     5    2   25 1
     6    3    4 ar
     7    3   23 1
     8    4    5 ar
     9    4   22 1
    10    5    6 ar
    11    5   26 1
    12    6    7 1
    13    7    8 1
    14    7   17 1
    15    7    9 1
    16    9   10 1
    17    9   27 1
    18    9   28 1
    19   10   11 1
    20   10   12 1
    21   10   18 1
    22   12   16 1
    23   12   13 1
    24   13   14 2
    25   13   17 1
    26   14   15 1
    27   14   29 1
    28   15   16 2
    29   15   30 1
    30   17   31 1
    31   18   19 1
    32   18   20 1
    33   18   21 1
