@<TRIPOS>MOLECULE
ZINC02761724
   26    28     0     0     0
SMALL
USER_CHARGES

@<TRIPOS>ATOM
      1 C1         -0.0163    1.3518    0.0095 C.2       1 <0>        -0.1888
      2 C2          1.1754    2.0361    0.0018 C.2       1 <0>        -0.0440
      3 C3          2.3197    1.2526   -0.0134 C.2       1 <0>        -0.2763
      4 S1          1.6361   -0.3938   -0.0157 S.3       1 <0>         0.2226
      5 C4          0.0021   -0.0041    0.0020 C.2       1 <0>        -0.2055
      6 C5          3.7244    1.6694   -0.0249 C.2       1 <0>         0.6144
      7 O1          4.0080    2.8530   -0.0217 O.2       1 <0>        -0.4840
      8 N1          4.7024    0.7422   -0.0392 N.am      1 <0>        -0.6051
      9 C6          6.0331    1.1371   -0.0502 C.2       1 <0>         0.3217
     10 N2          7.1238    0.3938   -0.0700 N.2       1 <0>        -0.5244
     11 C7          8.3342    0.9471   -0.0780 C.2       1 <0>         0.1558
     12 C8          8.4456    2.3110   -0.0654 C.2       1 <0>        -0.2327
     13 S2          6.7221    2.7861   -0.0491 S.3       1 <0>         0.1458
     14 C9          9.5446    0.0979   -0.0997 C.2       1 <0>        -0.0840
     15 C10         9.6399   -1.2672   -0.1202 C.2       1 <0>        -0.1212
     16 C11        10.8928   -1.8440   -0.1391 C.2       1 <0>        -0.1354
     17 C12        11.9891   -1.0429   -0.1368 C.2       1 <0>        -0.1230
     18 S3         11.2616    0.5871   -0.1139 S.3       1 <0>         0.1256
     19 Cl1        13.6666   -1.4890   -0.1569 Cl        1 <0>         0.0206
     20 H1         -0.9545    1.8865    0.0258 H         1 <0>         0.1452
     21 H2          1.2181    3.1152    0.0068 H         1 <0>         0.1553
     22 H3         -0.8410   -0.6791    0.0068 H         1 <0>         0.1947
     23 H4          4.4763   -0.2011   -0.0418 H         1 <0>         0.4268
     24 H5          9.3307    2.9299   -0.0691 H         1 <0>         0.2014
     25 H6          8.7512   -1.8810   -0.1212 H         1 <0>         0.1486
     26 H7         11.0003   -2.9186   -0.1551 H         1 <0>         0.1458
@<TRIPOS>BOND
     1    1    5 2
     2    1    2 1
     3    1   20 1
     4    2    3 2
     5    2   21 1
     6    3    4 1
     7    3    6 1
     8    4    5 1
     9    5   22 1
    10    6    7 2
    11    6    8 am
    12    8    9 1
    13    8   23 1
    14    9   13 1
    15    9   10 2
    16   10   11 1
    17   11   12 2
    18   11   14 1
    19   12   13 1
    20   12   24 1
    21   14   18 1
    22   14   15 2
    23   15   16 1
    24   15   25 1
    25   16   17 2
    26   16   26 1
    27   17   18 1
    28   17   19 1
