@<TRIPOS>MOLECULE
ZINC01453406
   28    29     0     0     0
SMALL
USER_CHARGES
2-cyano-N-(2,6-dichlorophenyl)-3-(2-thienyl)prop-2-enamide
@<TRIPOS>ATOM
      1 C1          4.0880   -8.6588   -0.3961 C.ar      1 <0>        -0.0854
      2 C2          2.7439   -8.6933   -0.0731 C.ar      1 <0>        -0.1010
      3 C3          2.0293   -7.5160    0.0448 C.ar      1 <0>        -0.0167
      4 C4          2.6631   -6.2969   -0.1617 C.ar      1 <0>         0.1510
      5 C5          4.0125   -6.2663   -0.4918 C.ar      1 <0>        -0.0186
      6 C6          4.7220   -7.4475   -0.6028 C.ar      1 <0>        -0.1009
      7 Cl1         4.8078   -4.7465   -0.7585 Cl        1 <0>        -0.0437
      8 N1          1.9428   -5.1028   -0.0432 N.am      1 <0>        -0.6809
      9 C7          1.8868   -4.4645    1.1425 C.2       1 <0>         0.5904
     10 O1          2.3846   -4.9714    2.1307 O.2       1 <0>        -0.5085
     11 C8          1.2254   -3.1579    1.2420 C.2       1 <0>        -0.1528
     12 C9          1.1678   -2.5013    2.4617 C.2       1 <0>         0.1324
     13 C10         0.5340   -1.2491    2.5571 C.2       1 <0>        -0.2261
     14 C11         0.3673   -0.4304    3.6742 C.2       1 <0>        -0.0695
     15 C12        -0.2973    0.7514    3.4838 C.2       1 <0>        -0.1839
     16 C13        -0.7545    1.0656    2.2402 C.2       1 <0>        -0.1843
     17 S1         -0.2672   -0.2936    1.2810 S.3       1 <0>         0.1732
     18 C14         0.6397   -2.5614    0.0794 C.1       1 <0>         0.2341
     19 N2          0.1751   -2.0883   -0.8430 N.1       1 <0>        -0.3798
     20 Cl2         0.3418   -7.5606    0.4498 Cl        1 <0>        -0.0431
     21 H1          4.6439   -9.5803   -0.4876 H         1 <0>         0.1480
     22 H2          2.2519   -9.6413    0.0869 H         1 <0>         0.1466
     23 H3          5.7719   -7.4243   -0.8549 H         1 <0>         0.1466
     24 H4          1.4839   -4.7346   -0.8144 H         1 <0>         0.4128
     25 H5          1.6095   -2.9512    3.3385 H         1 <0>         0.1760
     26 H6          0.7449   -0.7159    4.6450 H         1 <0>         0.1517
     27 H7         -0.4568    1.4273    4.3109 H         1 <0>         0.1419
     28 H8         -1.2880    1.9506    1.9262 H         1 <0>         0.1905
@<TRIPOS>BOND
     1    1    6 ar
     2    1    2 ar
     3    1   21 1
     4    2    3 ar
     5    2   22 1
     6    3    4 ar
     7    3   20 1
     8    4    5 ar
     9    4    8 1
    10    5    6 ar
    11    5    7 1
    12    6   23 1
    13    8    9 am
    14    8   24 1
    15    9   10 2
    16    9   11 1
    17   11   12 2
    18   11   18 1
    19   12   13 1
    20   12   25 1
    21   13   17 1
    22   13   14 2
    23   14   15 1
    24   14   26 1
    25   15   16 2
    26   15   27 1
    27   16   17 1
    28   16   28 1
    29   18   19 3
