@<TRIPOS>MOLECULE
ZINC04005454
   50    53     0     0     0
SMALL
USER_CHARGES
N-azepan-1-ylcarbothioyladamantane-1-carboxamide
@<TRIPOS>ATOM
      1 C1         -7.1282    0.3926    4.9949 C.3       1 <0>        -0.1222
      2 C2         -7.9280   -0.5831    4.1370 C.3       1 <0>        -0.1211
      3 C3         -9.0585    0.1544    3.4629 C.3       1 <0>        -0.1288
      4 C4         -8.6101    0.6590    2.0793 C.3       1 <0>         0.0943
      5 N1         -7.2315    1.1860    2.0992 N.pl3     1 <0>        -0.5468
      6 C5         -6.7273    2.0150    3.1711 C.3       1 <0>         0.0862
      7 C6         -6.0881    1.1313    4.2627 C.3       1 <0>        -0.1375
      8 C7         -6.4070    0.8772    1.0788 C.2       1 <0>         0.5170
      9 S1         -6.9657   -0.1077   -0.2052 S.2       1 <0>        -0.5327
     10 N2         -5.1426    1.3437    1.0693 N.am      1 <0>        -0.6460
     11 C8         -4.3180    1.0349    0.0488 C.2       1 <0>         0.4939
     12 O1         -4.7137    0.3374   -0.8605 O.2       1 <0>        -0.4013
     13 C9         -2.9042    1.5565    0.0381 C.3       1 <0>        -0.0651
     14 C10        -2.1881    1.0631   -1.2207 C.3       1 <0>        -0.0890
     15 C11        -0.7527    1.5927   -1.2315 C.3       1 <0>        -0.0860
     16 C12        -0.0127    1.0858    0.0080 C.3       1 <0>        -0.1112
     17 C13        -0.7288    1.5792    1.2668 C.3       1 <0>        -0.0830
     18 C14        -2.1642    1.0497    1.2777 C.3       1 <0>        -0.1020
     19 C15        -0.7496    3.1091    1.2752 C.3       1 <0>        -0.1104
     20 C16        -1.4896    3.6159    0.0357 C.3       1 <0>        -0.0830
     21 C17        -0.7734    3.1225   -1.2231 C.3       1 <0>        -0.1112
     22 C18        -2.9250    3.0863    0.0466 C.3       1 <0>        -0.1024
     23 H1         -7.8184    1.1120    5.4356 H         1 <0>         0.0645
     24 H2         -6.6510   -0.1656    5.8004 H         1 <0>         0.0642
     25 H3         -8.3345   -1.3734    4.7681 H         1 <0>         0.0694
     26 H4         -7.2769   -1.0208    3.3803 H         1 <0>         0.0660
     27 H5         -9.3543    1.0036    4.0789 H         1 <0>         0.0672
     28 H6         -9.9086   -0.5174    3.3445 H         1 <0>         0.0857
     29 H7         -9.2866    1.4497    1.7547 H         1 <0>         0.0788
     30 H8         -8.6635   -0.1658    1.3688 H         1 <0>         0.1266
     31 H9         -5.9752    2.6990    2.7779 H         1 <0>         0.0754
     32 H10        -7.5477    2.5879    3.6034 H         1 <0>         0.0999
     33 H11        -5.5342    1.7604    4.9594 H         1 <0>         0.0844
     34 H12        -5.4028    0.4231    3.7969 H         1 <0>         0.0652
     35 H13        -4.8260    1.9017    1.7968 H         1 <0>         0.4060
     36 H14        -2.7153    1.4241   -2.1037 H         1 <0>         0.0735
     37 H15        -2.1733   -0.0268   -1.2266 H         1 <0>         0.0735
     38 H16        -0.2425    1.2411   -2.1283 H         1 <0>         0.0776
     39 H17         0.0021   -0.0041    0.0020 H         1 <0>         0.0649
     40 H18         1.0099    1.4631    0.0003 H         1 <0>         0.0663
     41 H19        -0.2017    1.2182    2.1499 H         1 <0>         0.0762
     42 H20        -2.6744    1.4012    2.1745 H         1 <0>         0.0613
     43 H21        -2.1494   -0.0402    1.2717 H         1 <0>         0.0717
     44 H22        -1.2598    3.4606    2.1720 H         1 <0>         0.0623
     45 H23         0.2730    3.4864    1.2675 H         1 <0>         0.0676
     46 H24        -1.5044    4.7058    0.0417 H         1 <0>         0.0762
     47 H25         0.2491    3.4998   -1.2308 H         1 <0>         0.0663
     48 H26        -1.3006    3.4836   -2.1062 H         1 <0>         0.0649
     49 H27        -3.4522    3.4474   -0.8365 H         1 <0>         0.0719
     50 H28        -3.4352    3.4378    0.9434 H         1 <0>         0.0608
@<TRIPOS>BOND
     1    1    7 1
     2    1    2 1
     3    1   23 1
     4    1   24 1
     5    2    3 1
     6    2   25 1
     7    2   26 1
     8    3    4 1
     9    3   27 1
    10    3   28 1
    11    4    5 1
    12    4   29 1
    13    4   30 1
    14    5    6 1
    15    5    8 1
    16    6    7 1
    17    6   31 1
    18    6   32 1
    19    7   33 1
    20    7   34 1
    21    8    9 2
    22    8   10 1
    23   10   11 am
    24   10   35 1
    25   11   12 2
    26   11   13 1
    27   13   18 1
    28   13   22 1
    29   13   14 1
    30   14   15 1
    31   14   36 1
    32   14   37 1
    33   15   21 1
    34   15   16 1
    35   15   38 1
    36   16   17 1
    37   16   39 1
    38   16   40 1
    39   17   18 1
    40   17   19 1
    41   17   41 1
    42   18   42 1
    43   18   43 1
    44   19   20 1
    45   19   44 1
    46   19   45 1
    47   20   21 1
    48   20   22 1
    49   20   46 1
    50   21   47 1
    51   21   48 1
    52   22   49 1
    53   22   50 1
