@<TRIPOS>MOLECULE
ZINC03376309
   58    60     0     0     0
SMALL
USER_CHARGES
(2S)-N-(5-chloro-2-methoxy-phenyl)-2-[[4-(4-chlorophenyl)-5-[(1R)-1-dimethylaminoethyl]-1,2,4-triazol-3-yl]sulfanyl]propanamide
@<TRIPOS>ATOM
      1 C1        -11.7536    1.2474   -0.4938 C.3       1 <0>        -0.1802
      2 C2        -10.8841    1.1498   -1.7488 C.3       1 <0>         0.1375
      3 H1        -11.2176    0.3248   -2.3955 H         1 <0>         0.1483
      4 C3         -9.4472    0.9340   -1.3489 C.2       1 <0>         0.1230
      5 N1         -8.6382    1.8314   -0.8607 N.2       1 <0>        -0.2502
      6 N2         -7.4879    1.3089   -0.6253 N.2       1 <0>        -0.2746
      7 C4         -7.4956    0.0399   -0.9621 C.2       1 <0>         0.1845
      8 N3         -8.7491   -0.2415   -1.4318 N.pl3     1 <0>        -0.3961
      9 C5         -9.2212   -1.4765   -1.9007 C.ar      1 <0>         0.0776
     10 C6         -9.5963   -1.6182   -3.2296 C.ar      1 <0>        -0.0941
     11 C7        -10.0563   -2.8365   -3.6901 C.ar      1 <0>        -0.0928
     12 C8        -10.1533   -3.9124   -2.8252 C.ar      1 <0>        -0.0105
     13 C9         -9.7849   -3.7720   -1.4988 C.ar      1 <0>        -0.0869
     14 C10        -9.3194   -2.5572   -1.0350 C.ar      1 <0>        -0.0770
     15 Cl1       -10.7376   -5.4407   -3.4054 Cl        1 <0>        -0.0321
     16 S1         -6.1490   -1.0884   -0.8275 S.3       1 <0>         0.1409
     17 C11        -4.8848    0.0112   -0.1429 C.3       1 <0>        -0.1249
     18 H2         -4.6312    0.9361   -0.6816 H         1 <0>         0.1352
     19 C12        -5.3098    0.4699    1.2535 C.3       1 <0>        -0.1529
     20 C13        -3.5735   -0.7259   -0.0521 C.2       1 <0>         0.5312
     21 O1         -3.5579   -1.9387   -0.0590 O.2       1 <0>        -0.5060
     22 N4         -2.4182   -0.0376    0.0366 N.am      1 <0>        -0.6612
     23 C14        -1.1934   -0.7174    0.0042 C.ar      1 <0>         0.1318
     24 C15        -1.1025   -1.9575   -0.6108 C.ar      1 <0>        -0.0897
     25 C16         0.1063   -2.6290   -0.6364 C.ar      1 <0>        -0.0497
     26 C17         1.2274   -2.0641   -0.0543 C.ar      1 <0>        -0.0821
     27 C18         1.1444   -0.8262    0.5555 C.ar      1 <0>        -0.1745
     28 C19        -0.0630   -0.1475    0.5852 C.ar      1 <0>         0.1083
     29 O2         -0.1456    1.0702    1.1852 O.3       1 <0>        -0.3184
     30 C20         1.0523    1.5903    1.7652 C.3       1 <0>         0.0228
     31 Cl2         0.2175   -4.1835   -1.4010 Cl        1 <0>        -0.0582
     32 N5        -10.9959    2.3950   -2.5202 N.4       1 <0>        -0.3961
     33 C21       -12.3619    2.5784   -3.0286 C.3       1 <0>        -0.0503
     34 C22       -10.5731    3.5508   -1.7181 C.3       1 <0>        -0.0743
     35 H3        -12.8024    1.4049   -0.7857 H         1 <0>         0.0972
     36 H4        -11.4137    2.0925    0.1229 H         1 <0>         0.0958
     37 H5        -11.6698    0.3150    0.0837 H         1 <0>         0.1052
     38 H6         -9.5250   -0.7776   -3.9039 H         1 <0>         0.1384
     39 H7        -10.3444   -2.9483   -4.7249 H         1 <0>         0.1538
     40 H8         -9.8618   -4.6130   -0.8255 H         1 <0>         0.1560
     41 H9         -9.0323   -2.4480    0.0004 H         1 <0>         0.1473
     42 H10        -4.5415    1.1382    1.6696 H         1 <0>         0.0812
     43 H11        -5.4265   -0.4067    1.9077 H         1 <0>         0.0745
     44 H12        -6.2669    1.0080    1.1872 H         1 <0>         0.0891
     45 H13        -2.4368    1.0579    0.1344 H         1 <0>         0.4461
     46 H14        -1.9762   -2.4002   -1.0658 H         1 <0>         0.1613
     47 H15         2.1694   -2.5917   -0.0761 H         1 <0>         0.1411
     48 H16         2.0212   -0.3881    1.0092 H         1 <0>         0.1451
     49 H17         0.8459    2.5736    2.2130 H         1 <0>         0.1071
     50 H18         1.8210    1.6965    0.9856 H         1 <0>         0.0614
     51 H19         1.4121    0.9012    2.5434 H         1 <0>         0.0613
     52 H20       -12.4173    3.5161   -3.6011 H         1 <0>         0.1328
     53 H21       -13.0648    2.6226   -2.1836 H         1 <0>         0.1246
     54 H22       -12.6265    1.7338   -3.6818 H         1 <0>         0.1246
     55 H23       -10.6667    4.4677   -2.3185 H         1 <0>         0.1246
     56 H24        -9.5253    3.4196   -1.4099 H         1 <0>         0.1567
     57 H25       -11.2107    3.6305   -0.8253 H         1 <0>         0.1210
     58 H26       -10.3207    2.3187   -3.3852 H         1 <0>         0.4461
@<TRIPOS>BOND
     1    1    2 1
     2    1   35 1
     3    1   36 1
     4    1   37 1
     5    2    3 1
     6    2    4 1
     7    2   32 1
     8    4    8 1
     9    4    5 2
    10    5    6 1
    11    6    7 2
    12    7    8 1
    13    7   16 1
    14    8    9 1
    15    9   14 ar
    16    9   10 ar
    17   10   11 ar
    18   10   38 1
    19   11   12 ar
    20   11   39 1
    21   12   13 ar
    22   12   15 1
    23   13   14 ar
    24   13   40 1
    25   14   41 1
    26   16   17 1
    27   17   18 1
    28   17   19 1
    29   17   20 1
    30   19   42 1
    31   19   43 1
    32   19   44 1
    33   20   21 2
    34   20   22 am
    35   22   23 1
    36   22   45 1
    37   23   28 ar
    38   23   24 ar
    39   24   25 ar
    40   24   46 1
    41   25   26 ar
    42   25   31 1
    43   26   27 ar
    44   26   47 1
    45   27   28 ar
    46   27   48 1
    47   28   29 1
    48   29   30 1
    49   30   49 1
    50   30   50 1
    51   30   51 1
    52   32   33 1
    53   32   34 1
    54   32   58 1
    55   33   52 1
    56   33   53 1
    57   33   54 1
    58   34   55 1
    59   34   56 1
    60   34   57 1
