@<TRIPOS>MOLECULE
ZINC04050629
   34    35     0     0     0
SMALL
USER_CHARGES
N-cyclohexyl-5-iodo-2,6-dimethyl-pyrimidin-4-amine
@<TRIPOS>ATOM
      1 C1          0.9895   -6.1846   -3.7847 C.3       1 <0>        -0.1201
      2 C2          0.9643   -4.6798   -3.7078 C.ar      1 <0>         0.2475
      3 C3          0.8606   -4.0437   -2.4857 C.ar      1 <0>        -0.2945
      4 C4          0.8406   -2.6472   -2.4650 C.ar      1 <0>         0.4766
      5 N1          0.9161   -1.9857   -3.6161 N.ar      1 <0>        -0.5705
      6 C5          1.0194   -2.6337   -4.7587 C.ar      1 <0>         0.3799
      7 N2          1.0408   -3.9503   -4.8119 N.ar      1 <0>        -0.5568
      8 C6          1.1096   -1.8473   -6.0411 C.3       1 <0>        -0.0876
      9 N3          0.7381   -1.9623   -1.2648 N.pl3     1 <0>        -0.7015
     10 C7          0.7182   -0.4975   -1.2568 C.3       1 <0>         0.1517
     11 C8          0.0021   -0.0041    0.0020 C.3       1 <0>        -0.1296
     12 C9         -0.0187    1.5258    0.0104 C.3       1 <0>        -0.1142
     13 C10         1.4167    2.0553   -0.0004 C.3       1 <0>        -0.1233
     14 C11         2.1328    1.5619   -1.2592 C.3       1 <0>        -0.1158
     15 C12         2.1536    0.0321   -1.2676 C.3       1 <0>        -0.1277
     16 I1          0.7358   -5.1459   -0.7085 I         1 <0>        -0.0160
     17 H1         -0.0288   -6.5605   -3.8833 H         1 <0>         0.0933
     18 H2          1.5765   -6.4944   -4.6493 H         1 <0>         0.0908
     19 H3          1.4392   -6.5873   -2.8771 H         1 <0>         0.0853
     20 H4          0.1069   -1.6712   -6.4306 H         1 <0>         0.0901
     21 H5          1.5973   -0.8919   -5.8479 H         1 <0>         0.0875
     22 H6          1.6897   -2.4101   -6.7724 H         1 <0>         0.0898
     23 H7          0.6794   -2.4528   -0.4300 H         1 <0>         0.4103
     24 H8          0.1910   -0.1364   -2.1398 H         1 <0>         0.0947
     25 H9          0.5293   -0.3651    0.8851 H         1 <0>         0.0680
     26 H10        -1.0205   -0.3814    0.0098 H         1 <0>         0.0691
     27 H11        -0.5459    1.8868   -0.8726 H         1 <0>         0.0663
     28 H12        -0.5289    1.8773    0.9072 H         1 <0>         0.0687
     29 H13         1.4019    3.1452    0.0056 H         1 <0>         0.0654
     30 H14         1.9439    1.6943    0.8826 H         1 <0>         0.0627
     31 H15         3.1554    1.9392   -1.2670 H         1 <0>         0.0653
     32 H16         1.6057    1.9230   -2.1423 H         1 <0>         0.0657
     33 H17         2.6808   -0.3290   -0.3846 H         1 <0>         0.0615
     34 H18         2.6638   -0.3194   -2.1644 H         1 <0>         0.0673
@<TRIPOS>BOND
     1    1    2 1
     2    1   17 1
     3    1   18 1
     4    1   19 1
     5    2    7 ar
     6    2    3 ar
     7    3    4 ar
     8    3   16 1
     9    4    5 ar
    10    4    9 1
    11    5    6 ar
    12    6    7 ar
    13    6    8 1
    14    8   20 1
    15    8   21 1
    16    8   22 1
    17    9   10 1
    18    9   23 1
    19   10   15 1
    20   10   11 1
    21   10   24 1
    22   11   12 1
    23   11   25 1
    24   11   26 1
    25   12   13 1
    26   12   27 1
    27   12   28 1
    28   13   14 1
    29   13   29 1
    30   13   30 1
    31   14   15 1
    32   14   31 1
    33   14   32 1
    34   15   33 1
    35   15   34 1
