@<TRIPOS>MOLECULE
ZINC01418939
   73    78     0     0     0
SMALL
USER_CHARGES
N-benzo[1,3]dioxol-5-yl-2-[(2-benzotriazol-1-ylacetyl)-[(4-fluorophenyl)methyl]amino]-2-(4-isopropylphenyl)-acetamide
@<TRIPOS>ATOM
      1 C1         -1.4209    4.9914   -1.9289 C.3       1 <0>        -0.1440
      2 C2         -2.1110    3.8266   -1.2162 C.3       1 <0>        -0.0586
      3 C3         -3.6281    3.9754   -1.3470 C.3       1 <0>        -0.1433
      4 C4         -1.7295    3.8327    0.2417 C.ar      1 <0>        -0.0626
      5 C5         -2.0215    4.9315    1.0279 C.ar      1 <0>        -0.1084
      6 C6         -1.6755    4.9353    2.3663 C.ar      1 <0>        -0.0872
      7 C7         -1.0289    3.8443    2.9161 C.ar      1 <0>        -0.0801
      8 C8         -0.7325    2.7474    2.1287 C.ar      1 <0>        -0.0877
      9 C9         -1.0824    2.7418    0.7914 C.ar      1 <0>        -0.1142
     10 C10        -0.6474    3.8504    4.3740 C.3       1 <0>         0.1806
     11 H1         -0.1649    2.9064    4.6273 H         1 <0>         0.0989
     12 C11         0.3045    4.9881    4.6395 C.2       1 <0>         0.5173
     13 O1         -0.1247    6.1077    4.8228 O.2       1 <0>        -0.4948
     14 N1          1.6327    4.7617    4.6731 N.am      1 <0>        -0.6615
     15 C12         2.5177    5.8197    4.9183 C.ar      1 <0>         0.1512
     16 C13         2.2469    7.0832    4.4105 C.ar      1 <0>        -0.1023
     17 C14         3.1166    8.1286    4.6551 C.ar      1 <0>        -0.0805
     18 C15         4.2659    7.9172    5.3996 C.ar      1 <0>         0.0244
     19 C16         4.5429    6.6496    5.9059 C.ar      1 <0>         0.0520
     20 C17         3.6682    5.6035    5.6641 C.ar      1 <0>        -0.1216
     21 O2          5.7200    6.7027    6.5952 O.3       1 <0>        -0.3064
     22 C18         6.3653    7.9147    6.1619 C.3       1 <0>         0.2133
     23 O3          5.2703    8.7646    5.7723 O.3       1 <0>        -0.3068
     24 N2         -1.8504    4.0190    5.1929 N.am      1 <0>        -0.5898
     25 C19        -1.7772    4.7499    6.4604 C.3       1 <0>         0.1193
     26 C20        -1.2142    3.8481    7.5285 C.ar      1 <0>        -0.1197
     27 C21        -1.8159    3.7909    8.7718 C.ar      1 <0>        -0.0810
     28 C22        -1.3033    2.9607    9.7505 C.ar      1 <0>        -0.1465
     29 C23        -0.1805    2.1939    9.4888 C.ar      1 <0>         0.1039
     30 C24         0.4243    2.2560    8.2449 C.ar      1 <0>        -0.1476
     31 C25        -0.0931    3.0830    7.2660 C.ar      1 <0>        -0.0842
     32 F1          0.3242    1.3855   10.4464 F         1 <0>        -0.1362
     33 C26        -3.0245    3.5018    4.7801 C.2       1 <0>         0.5032
     34 O4         -3.1057    2.9757    3.6903 O.2       1 <0>        -0.4796
     35 C27        -4.2365    3.5771    5.6726 C.3       1 <0>         0.1179
     36 N3         -5.4324    3.2257    4.9029 N.pl3     1 <0>        -0.3848
     37 C28        -5.9687    1.9701    4.7436 C.ar      1 <0>         0.1025
     38 C29        -5.6177    0.7042    5.2004 C.ar      1 <0>        -0.1208
     39 C30        -6.3787   -0.3775    4.8562 C.ar      1 <0>        -0.0642
     40 C31        -7.5016   -0.2246    4.0528 C.ar      1 <0>        -0.1350
     41 C32        -7.8671    1.0061    3.5918 C.ar      1 <0>        -0.0333
     42 C33        -7.1038    2.1315    3.9303 C.ar      1 <0>        -0.0164
     43 N4         -7.2119    3.4420    3.6341 N.2       1 <0>        -0.2119
     44 N5         -6.2592    4.1054    4.1883 N.2       1 <0>         0.0017
     45 H2         -1.7342    5.9317   -1.4753 H         1 <0>         0.0565
     46 H3         -0.3401    4.8854   -1.8357 H         1 <0>         0.0553
     47 H4         -1.6968    4.9870   -2.9833 H         1 <0>         0.0588
     48 H5         -1.7977    2.8862   -1.6698 H         1 <0>         0.0766
     49 H6         -3.9040    3.9710   -2.4015 H         1 <0>         0.0584
     50 H7         -4.1197    3.1455   -0.8393 H         1 <0>         0.0554
     51 H8         -3.9414    4.9157   -0.8934 H         1 <0>         0.0561
     52 H9         -2.5231    5.7856    0.5974 H         1 <0>         0.1189
     53 H10        -1.9074    5.7921    2.9815 H         1 <0>         0.1198
     54 H11        -0.2273    1.8950    2.5583 H         1 <0>         0.1174
     55 H12        -0.8505    1.8850    0.1761 H         1 <0>         0.1206
     56 H13         1.9758    3.8661    4.5275 H         1 <0>         0.4144
     57 H14         1.3538    7.2499    3.8266 H         1 <0>         0.1504
     58 H15         2.9019    9.1116    4.2625 H         1 <0>         0.1419
     59 H16         3.8813    4.6197    6.0554 H         1 <0>         0.1399
     60 H17         7.0186    7.7180    5.3119 H         1 <0>         0.0870
     61 H18         6.9261    8.3640    6.9814 H         1 <0>         0.1342
     62 H19        -1.1311    5.6197    6.3415 H         1 <0>         0.1274
     63 H20        -2.7761    5.0763    6.7498 H         1 <0>         0.0989
     64 H21        -2.6892    4.3922    8.9771 H         1 <0>         0.1375
     65 H22        -1.7759    2.9131   10.7205 H         1 <0>         0.1399
     66 H23         1.2999    1.6581    8.0395 H         1 <0>         0.1377
     67 H24         0.3783    3.1313    6.2956 H         1 <0>         0.1216
     68 H25        -4.1205    2.8797    6.5023 H         1 <0>         0.1292
     69 H26        -4.3391    4.5903    6.0612 H         1 <0>         0.1302
     70 H27        -4.7464    0.5764    5.8257 H         1 <0>         0.1270
     71 H28        -6.1049   -1.3597    5.2121 H         1 <0>         0.1373
     72 H29        -8.0921   -1.0900    3.7905 H         1 <0>         0.1376
     73 H30        -8.7421    1.1128    2.9679 H         1 <0>         0.1388
@<TRIPOS>BOND
     1    1    2 1
     2    1   45 1
     3    1   46 1
     4    1   47 1
     5    2    3 1
     6    2    4 1
     7    2   48 1
     8    3   49 1
     9    3   50 1
    10    3   51 1
    11    4    9 ar
    12    4    5 ar
    13    5    6 ar
    14    5   52 1
    15    6    7 ar
    16    6   53 1
    17    7    8 ar
    18    7   10 1
    19    8    9 ar
    20    8   54 1
    21    9   55 1
    22   10   11 1
    23   10   12 1
    24   10   24 1
    25   12   13 2
    26   12   14 am
    27   14   15 1
    28   14   56 1
    29   15   20 ar
    30   15   16 ar
    31   16   17 ar
    32   16   57 1
    33   17   18 ar
    34   17   58 1
    35   18   23 1
    36   18   19 ar
    37   19   20 ar
    38   19   21 1
    39   20   59 1
    40   21   22 1
    41   22   23 1
    42   22   60 1
    43   22   61 1
    44   24   25 1
    45   24   33 am
    46   25   26 1
    47   25   62 1
    48   25   63 1
    49   26   31 ar
    50   26   27 ar
    51   27   28 ar
    52   27   64 1
    53   28   29 ar
    54   28   65 1
    55   29   30 ar
    56   29   32 1
    57   30   31 ar
    58   30   66 1
    59   31   67 1
    60   33   34 2
    61   33   35 1
    62   35   36 1
    63   35   68 1
    64   35   69 1
    65   36   44 1
    66   36   37 1
    67   37   42 ar
    68   37   38 ar
    69   38   39 ar
    70   38   70 1
    71   39   40 ar
    72   39   71 1
    73   40   41 ar
    74   40   72 1
    75   41   42 ar
    76   41   73 1
    77   42   43 1
    78   43   44 2
