@<TRIPOS>MOLECULE
ZINC20179237
   67    70     0     0     0
SMALL
USER_CHARGES
N-(2-diethylaminoethyl)-4-[(Z)-[4-[(2-fluorophenyl)methyl]-3-oxo-1,4-benzoxazin-2-ylidene]methyl]benzamide
@<TRIPOS>ATOM
      1 C1         -2.2538   -1.0835   14.1681 C.3       1 <0>        -0.1917
      2 C2         -3.3696   -2.1303   14.1682 C.3       1 <0>        -0.0191
      3 N1         -4.5684   -1.5684   13.5316 N.4       1 <0>        -0.3961
      4 C3         -5.0417   -0.3813   14.2560 C.3       1 <0>        -0.0141
      5 C4         -5.6453   -0.8082   15.5955 C.3       1 <0>        -0.1893
      6 C5         -4.3170   -1.2571   12.1182 C.3       1 <0>        -0.0244
      7 C6         -4.0694   -2.5548   11.3464 C.3       1 <0>         0.1001
      8 N2         -3.8187   -2.2444    9.9368 N.am      1 <0>        -0.7439
      9 C7         -3.5736   -3.2391    9.0610 C.2       1 <0>         0.5715
     10 O1         -3.5607   -4.3940    9.4408 O.2       1 <0>        -0.5255
     11 C8         -3.3209   -2.9262    7.6400 C.ar      1 <0>        -0.1401
     12 C9         -3.0668   -3.9583    6.7321 C.ar      1 <0>        -0.0570
     13 C10        -2.8338   -3.6702    5.4175 C.ar      1 <0>        -0.1023
     14 C11        -2.8490   -2.3405    4.9795 C.ar      1 <0>        -0.0249
     15 C12        -3.0979   -1.3073    5.8908 C.ar      1 <0>        -0.1059
     16 C13        -3.3364   -1.5982    7.2038 C.ar      1 <0>        -0.0862
     17 C14        -2.5979   -2.0291    3.5647 C.2       1 <0>        -0.0657
     18 C15        -2.7650   -0.7665    3.1104 C.2       1 <0>         0.0148
     19 C16        -2.2342   -0.3438    1.7945 C.2       1 <0>         0.5346
     20 O2         -1.2831   -0.9071    1.2867 O.2       1 <0>        -0.4644
     21 N3         -2.8455    0.6974    1.1795 N.am      1 <0>        -0.5444
     22 C17        -3.9483    1.2954    1.8015 C.ar      1 <0>         0.1104
     23 C18        -4.7629    2.1624    1.0873 C.ar      1 <0>        -0.1274
     24 C19        -5.8515    2.7504    1.7028 C.ar      1 <0>        -0.0995
     25 C20        -6.1328    2.4779    3.0294 C.ar      1 <0>        -0.1112
     26 C21        -5.3259    1.6156    3.7483 C.ar      1 <0>        -0.0994
     27 C22        -4.2325    1.0224    3.1388 C.ar      1 <0>         0.0612
     28 O3         -3.4341    0.1732    3.8436 O.3       1 <0>        -0.2310
     29 C23        -2.3651    1.1847   -0.1159 C.3       1 <0>         0.1470
     30 C24        -1.3331    2.2608    0.1035 C.ar      1 <0>        -0.1561
     31 C25        -1.6888    3.5921   -0.0041 C.ar      1 <0>        -0.0717
     32 C26        -0.7411    4.5791    0.1910 C.ar      1 <0>        -0.1334
     33 C27         0.5623    4.2362    0.4998 C.ar      1 <0>        -0.0791
     34 C28         0.9189    2.9061    0.6136 C.ar      1 <0>        -0.1596
     35 C29        -0.0297    1.9164    0.4183 C.ar      1 <0>         0.1189
     36 F1          0.3178    0.6156    0.5293 F         1 <0>        -0.1177
     37 H1         -1.3562   -1.5043   14.6448 H         1 <0>         0.1068
     38 H2         -2.5839   -0.1957   14.7274 H         1 <0>         0.0816
     39 H3         -2.0191   -0.7979   13.1321 H         1 <0>         0.0789
     40 H4         -3.0395   -3.0181   13.6089 H         1 <0>         0.1332
     41 H5         -3.6043   -2.4159   15.2042 H         1 <0>         0.1351
     42 H6         -4.1969    0.3000   14.4350 H         1 <0>         0.1310
     43 H7         -5.8070    0.1333   13.6564 H         1 <0>         0.1313
     44 H8         -5.9997    0.0807   16.1379 H         1 <0>         0.1076
     45 H9         -4.8800   -1.3227   16.1952 H         1 <0>         0.0803
     46 H10        -6.4901   -1.4895   15.4164 H         1 <0>         0.0823
     47 H11        -5.1911   -0.7402   11.6955 H         1 <0>         0.1387
     48 H12        -3.4326   -0.6080   12.0374 H         1 <0>         0.1362
     49 H13        -3.1953   -3.0717   11.7691 H         1 <0>         0.0874
     50 H14        -4.9537   -3.2040   11.4272 H         1 <0>         0.0885
     51 H15        -3.8305   -1.1995    9.5932 H         1 <0>         0.4281
     52 H16        -3.0551   -4.9839    7.0702 H         1 <0>         0.1409
     53 H17        -2.6382   -4.4678    4.7161 H         1 <0>         0.1400
     54 H18        -3.1059   -0.2809    5.5548 H         1 <0>         0.1532
     55 H19        -3.5324   -0.8016    7.9062 H         1 <0>         0.1240
     56 H20        -2.2741   -2.8232    2.8758 H         1 <0>         0.1665
     57 H21        -4.5463    2.3775    0.0513 H         1 <0>         0.1368
     58 H22        -6.4849    3.4250    1.1460 H         1 <0>         0.1367
     59 H23        -6.9850    2.9404    3.5051 H         1 <0>         0.1376
     60 H24        -5.5476    1.4050    4.7841 H         1 <0>         0.1386
     61 H25        -1.9138    0.3526   -0.6762 H         1 <0>         0.1102
     62 H26        -3.2090    1.5972   -0.6884 H         1 <0>         0.1066
     63 H27        -2.7065    3.8611   -0.2456 H         1 <0>         0.1324
     64 H28        -1.0189    5.6190    0.1027 H         1 <0>         0.1333
     65 H29         1.3019    5.0083    0.6524 H         1 <0>         0.1355
     66 H30         1.9372    2.6385    0.8544 H         1 <0>         0.1375
     67 H31        -5.3619   -2.3291   13.5742 H         1 <0>         0.4457
@<TRIPOS>BOND
     1    1    2 1
     2    1   37 1
     3    1   38 1
     4    1   39 1
     5    2    3 1
     6    2   40 1
     7    2   41 1
     8    3    4 1
     9    3    6 1
    10    3   67 1
    11    4    5 1
    12    4   42 1
    13    4   43 1
    14    5   44 1
    15    5   45 1
    16    5   46 1
    17    6    7 1
    18    6   47 1
    19    6   48 1
    20    7    8 1
    21    7   49 1
    22    7   50 1
    23    8    9 am
    24    8   51 1
    25    9   10 2
    26    9   11 1
    27   11   16 ar
    28   11   12 ar
    29   12   13 ar
    30   12   52 1
    31   13   14 ar
    32   13   53 1
    33   14   15 ar
    34   14   17 1
    35   15   16 ar
    36   15   54 1
    37   16   55 1
    38   17   18 2
    39   17   56 1
    40   18   28 1
    41   18   19 1
    42   19   20 2
    43   19   21 am
    44   21   22 1
    45   21   29 1
    46   22   27 ar
    47   22   23 ar
    48   23   24 ar
    49   23   57 1
    50   24   25 ar
    51   24   58 1
    52   25   26 ar
    53   25   59 1
    54   26   27 ar
    55   26   60 1
    56   27   28 1
    57   29   30 1
    58   29   61 1
    59   29   62 1
    60   30   35 ar
    61   30   31 ar
    62   31   32 ar
    63   31   63 1
    64   32   33 ar
    65   32   64 1
    66   33   34 ar
    67   33   65 1
    68   34   35 ar
    69   34   66 1
    70   35   36 1
