@<TRIPOS>MOLECULE
ZINC05005942
   56    59     0     0     0
SMALL
USER_CHARGES
N-cycloheptyl-2-cyclohexyl-3-oxo-isoindoline-4-carboxamide
@<TRIPOS>ATOM
      1 C1         -3.1593    4.0482    0.0512 C.ar      1 <0>        -0.0955
      2 C2         -1.8134    4.3740    0.0411 C.ar      1 <0>        -0.0794
      3 C3         -0.8586    3.3797    0.0275 C.ar      1 <0>        -0.0915
      4 C4         -1.2369    2.0388    0.0184 C.ar      1 <0>        -0.1001
      5 C5         -2.6045    1.7086    0.0354 C.ar      1 <0>        -0.0662
      6 C6         -3.5566    2.7243    0.0481 C.ar      1 <0>        -0.0973
      7 C7         -3.0282    0.2911    0.0327 C.2       1 <0>         0.5364
      8 O1         -2.1938   -0.5925    0.0215 O.2       1 <0>        -0.4781
      9 N1         -4.3394   -0.0203    0.0425 N.am      1 <0>        -0.7309
     10 C8         -4.7590   -1.4240    0.0397 C.3       1 <0>         0.1512
     11 C9         -4.7587   -1.9426   -1.4129 C.3       1 <0>        -0.1228
     12 C10        -4.6789   -3.4457   -1.3830 C.3       1 <0>        -0.1171
     13 C11        -6.0677   -4.1092   -1.4509 C.3       1 <0>        -0.1185
     14 C12        -7.1149   -3.3941   -0.5758 C.3       1 <0>        -0.1204
     15 C13        -6.5630   -2.9834    0.7625 C.3       1 <0>        -0.1112
     16 C14        -6.0704   -1.5252    0.6627 C.3       1 <0>        -0.1298
     17 C15        -0.0144    1.2112    0.0087 C.2       1 <0>         0.5461
     18 O2          0.0021   -0.0041    0.0020 O.2       1 <0>        -0.4654
     19 N2          1.0779    1.9948    0.0025 N.am      1 <0>        -0.6196
     20 C16         0.6497    3.3982    0.0136 C.3       1 <0>         0.1423
     21 C17         2.4656    1.5255   -0.0128 C.3       1 <0>         0.1750
     22 C18         2.7057    0.6847   -1.2683 C.3       1 <0>        -0.1353
     23 C19         4.1550    0.1945   -1.2843 C.3       1 <0>        -0.1139
     24 C20         4.4188   -0.6580   -0.0415 C.3       1 <0>        -0.1238
     25 C21         4.1786    0.1828    1.2140 C.3       1 <0>        -0.1139
     26 C22         2.7294    0.6730    1.2300 C.3       1 <0>        -0.1353
     27 H1         -3.9020    4.8322    0.0610 H         1 <0>         0.1406
     28 H2         -1.5107    5.4107    0.0435 H         1 <0>         0.1373
     29 H3         -4.6079    2.4773    0.0560 H         1 <0>         0.1347
     30 H4         -5.0054    0.6849    0.0514 H         1 <0>         0.3941
     31 H5         -4.0454   -2.0064    0.6226 H         1 <0>         0.0864
     32 H6         -5.6766   -1.6329   -1.9124 H         1 <0>         0.0662
     33 H7         -3.8959   -1.5415   -1.9447 H         1 <0>         0.0668
     34 H8         -4.1848   -3.7553   -0.4621 H         1 <0>         0.0634
     35 H9         -4.0848   -3.7835   -2.2322 H         1 <0>         0.0613
     36 H10        -5.9797   -5.1437   -1.1191 H         1 <0>         0.0595
     37 H11        -6.4105   -4.1022   -2.4856 H         1 <0>         0.0585
     38 H12        -7.9598   -4.0644   -0.4182 H         1 <0>         0.0601
     39 H13        -7.4637   -2.5052   -1.1013 H         1 <0>         0.0609
     40 H14        -5.7303   -3.6336    1.0304 H         1 <0>         0.0695
     41 H15        -7.3425   -3.0554    1.5210 H         1 <0>         0.0682
     42 H16        -6.0186   -1.1007    1.6653 H         1 <0>         0.0669
     43 H17        -6.7858   -0.9504    0.0746 H         1 <0>         0.0666
     44 H18         1.0264    3.8977    0.9062 H         1 <0>         0.0953
     45 H19         1.0106    3.9070   -0.8803 H         1 <0>         0.0954
     46 H20         3.1390    2.3825   -0.0152 H         1 <0>         0.0899
     47 H21         2.0323   -0.1724   -1.2659 H         1 <0>         0.0805
     48 H22         2.5178    1.2919   -2.1538 H         1 <0>         0.0628
     49 H23         4.8284    1.0515   -1.2867 H         1 <0>         0.0624
     50 H24         4.3261   -0.4045   -2.1787 H         1 <0>         0.0664
     51 H25         5.4513   -1.0072   -0.0529 H         1 <0>         0.0639
     52 H26         3.7454   -1.5150   -0.0391 H         1 <0>         0.0653
     53 H27         4.8521    1.0399    1.2116 H         1 <0>         0.0624
     54 H28         4.3666   -0.4244    2.0995 H         1 <0>         0.0665
     55 H29         2.5583    1.2720    2.1245 H         1 <0>         0.0628
     56 H30         2.0559   -0.1840    1.2324 H         1 <0>         0.0804
@<TRIPOS>BOND
     1    1    6 ar
     2    1    2 ar
     3    1   27 1
     4    2    3 ar
     5    2   28 1
     6    3   20 1
     7    3    4 ar
     8    4    5 ar
     9    4   17 1
    10    5    6 ar
    11    5    7 1
    12    6   29 1
    13    7    8 2
    14    7    9 am
    15    9   10 1
    16    9   30 1
    17   10   16 1
    18   10   11 1
    19   10   31 1
    20   11   12 1
    21   11   32 1
    22   11   33 1
    23   12   13 1
    24   12   34 1
    25   12   35 1
    26   13   14 1
    27   13   36 1
    28   13   37 1
    29   14   15 1
    30   14   38 1
    31   14   39 1
    32   15   16 1
    33   15   40 1
    34   15   41 1
    35   16   42 1
    36   16   43 1
    37   17   18 2
    38   17   19 am
    39   19   20 1
    40   19   21 1
    41   20   44 1
    42   20   45 1
    43   21   26 1
    44   21   22 1
    45   21   46 1
    46   22   23 1
    47   22   47 1
    48   22   48 1
    49   23   24 1
    50   23   49 1
    51   23   50 1
    52   24   25 1
    53   24   51 1
    54   24   52 1
    55   25   26 1
    56   25   53 1
    57   25   54 1
    58   26   55 1
    59   26   56 1
