@<TRIPOS>MOLECULE
ZINC20054558
   37    38     0     0     0
SMALL
USER_CHARGES
N-cyclopentyl-2-[(4-fluoro-2-methyl-phenyl)amino]acetamide
@<TRIPOS>ATOM
      1 C1          8.3021    3.6305    3.3643 C.3       1 <0>        -0.1123
      2 C2          8.9504    3.0391    2.1392 C.ar      1 <0>        -0.1324
      3 C3         10.3091    3.1858    1.9371 C.ar      1 <0>        -0.1036
      4 C4         10.9043    2.6472    0.8091 C.ar      1 <0>         0.0372
      5 C5         10.1404    1.9558   -0.1163 C.ar      1 <0>        -0.1068
      6 C6          8.7828    1.8022    0.0843 C.ar      1 <0>        -0.1756
      7 C7          8.1835    2.3417    1.2153 C.ar      1 <0>         0.2157
      8 N1          6.8090    2.1878    1.4202 N.pl3     1 <0>        -0.7453
      9 C8          5.9998    1.4571    0.4417 C.3       1 <0>         0.1065
     10 C9          4.5626    1.4351    0.8946 C.2       1 <0>         0.5129
     11 O1          4.2455    1.9765    1.9325 O.2       1 <0>        -0.5395
     12 N2          3.6296    0.8138    0.1462 N.am      1 <0>        -0.7373
     13 C10         2.2325    0.7924    0.5864 C.3       1 <0>         0.1342
     14 C11         1.4534    1.9953   -0.0011 C.3       1 <0>        -0.1344
     15 C12        -0.0188    1.5345    0.0105 C.3       1 <0>        -0.1229
     16 C13         0.0021   -0.0041    0.0020 C.3       1 <0>        -0.1190
     17 C14         1.4862   -0.4246   -0.0144 C.3       1 <0>        -0.1245
     18 F1         12.2324    2.7959    0.6111 F         1 <0>        -0.1464
     19 H1          9.0638    4.1408    3.9721 H         1 <0>         0.0709
     20 H2          7.8373    2.8285    3.9565 H         1 <0>         0.0690
     21 H3          7.5319    4.3539    3.0585 H         1 <0>         0.0690
     22 H4         10.9067    3.7249    2.6573 H         1 <0>         0.1339
     23 H5         10.6068    1.5368   -0.9957 H         1 <0>         0.1329
     24 H6          8.1874    1.2633   -0.6378 H         1 <0>         0.1284
     25 H7          6.3352    2.6154    2.3161 H         1 <0>         0.4349
     26 H8          6.0685    1.9558   -0.5364 H         1 <0>         0.0895
     27 H9          6.3726    0.4259    0.3545 H         1 <0>         0.0896
     28 H10         3.9172    0.3228   -0.7952 H         1 <0>         0.4198
     29 H11         2.3189    0.7875    1.6830 H         1 <0>         0.0983
     30 H12         1.6139    2.8805    0.6319 H         1 <0>         0.0685
     31 H13         1.8130    2.2029   -1.0197 H         1 <0>         0.0696
     32 H14        -0.5150    1.9150    0.9155 H         1 <0>         0.0674
     33 H15        -0.5322    1.9247   -0.8807 H         1 <0>         0.0672
     34 H16        -0.5028   -0.3826    0.9030 H         1 <0>         0.0690
     35 H17        -0.5200   -0.3730   -0.8932 H         1 <0>         0.0696
     36 H18         1.8511   -0.6111   -1.0352 H         1 <0>         0.0738
     37 H19         1.6707   -1.3121    0.6088 H         1 <0>         0.0721
@<TRIPOS>BOND
     1    1    2 1
     2    1   19 1
     3    1   20 1
     4    1   21 1
     5    2    7 ar
     6    2    3 ar
     7    3    4 ar
     8    3   22 1
     9    4    5 ar
    10    4   18 1
    11    5    6 ar
    12    5   23 1
    13    6    7 ar
    14    6   24 1
    15    7    8 1
    16    8    9 1
    17    8   25 1
    18    9   10 1
    19    9   26 1
    20    9   27 1
    21   10   11 2
    22   10   12 am
    23   12   13 1
    24   12   28 1
    25   13   17 1
    26   13   14 1
    27   13   29 1
    28   14   15 1
    29   14   30 1
    30   14   31 1
    31   15   16 1
    32   15   32 1
    33   15   33 1
    34   16   17 1
    35   16   34 1
    36   16   35 1
    37   17   36 1
    38   17   37 1
