@<TRIPOS>MOLECULE
ZINC20303198
   34    35     0     0     0
SMALL
USER_CHARGES
N-cyclopentyl-2-[(3-iodophenyl)amino]acetamide
@<TRIPOS>ATOM
      1 C1         10.1401    1.9552   -0.1146 C.ar      1 <0>        -0.0646
      2 C2          8.7828    1.7974    0.0876 C.ar      1 <0>        -0.1889
      3 C3          8.1820    2.3416    1.2155 C.ar      1 <0>         0.2291
      4 C4          8.9508    3.0342    2.1424 C.ar      1 <0>        -0.1622
      5 C5         10.3085    3.1844    1.9368 C.ar      1 <0>        -0.0472
      6 C6         10.9026    2.6454    0.8093 C.ar      1 <0>        -0.1489
      7 I1         11.4693    4.2286    3.3336 I         1 <0>        -0.0453
      8 N1          6.8090    2.1878    1.4202 N.pl3     1 <0>        -0.7463
      9 C7          5.9998    1.4571    0.4417 C.3       1 <0>         0.1080
     10 C8          4.5626    1.4351    0.8946 C.2       1 <0>         0.5126
     11 O1          4.2455    1.9765    1.9325 O.2       1 <0>        -0.5386
     12 N2          3.6296    0.8138    0.1462 N.am      1 <0>        -0.7374
     13 C9          2.2325    0.7924    0.5864 C.3       1 <0>         0.1342
     14 C10         1.4534    1.9953   -0.0011 C.3       1 <0>        -0.1344
     15 C11        -0.0188    1.5345    0.0105 C.3       1 <0>        -0.1229
     16 C12         0.0021   -0.0041    0.0020 C.3       1 <0>        -0.1190
     17 C13         1.4862   -0.4246   -0.0144 C.3       1 <0>        -0.1245
     18 H1         10.6069    1.5352   -0.9932 H         1 <0>         0.1293
     19 H2          8.1886    1.2542   -0.6324 H         1 <0>         0.1241
     20 H3          8.4874    3.4550    3.0225 H         1 <0>         0.1273
     21 H4         11.9643    2.7638    0.6509 H         1 <0>         0.1253
     22 H5          6.3352    2.6153    2.3162 H         1 <0>         0.4355
     23 H6          6.0685    1.9558   -0.5364 H         1 <0>         0.0896
     24 H7          6.3726    0.4259    0.3545 H         1 <0>         0.0897
     25 H8          3.9172    0.3228   -0.7952 H         1 <0>         0.4196
     26 H9          2.3189    0.7875    1.6830 H         1 <0>         0.0983
     27 H10         1.6139    2.8805    0.6319 H         1 <0>         0.0685
     28 H11         1.8130    2.2029   -1.0197 H         1 <0>         0.0696
     29 H12        -0.5150    1.9150    0.9155 H         1 <0>         0.0674
     30 H13        -0.5322    1.9247   -0.8807 H         1 <0>         0.0673
     31 H14        -0.5028   -0.3826    0.9030 H         1 <0>         0.0690
     32 H15        -0.5200   -0.3730   -0.8932 H         1 <0>         0.0697
     33 H16         1.8511   -0.6111   -1.0352 H         1 <0>         0.0738
     34 H17         1.6707   -1.3121    0.6088 H         1 <0>         0.0721
@<TRIPOS>BOND
     1    1    6 ar
     2    1    2 ar
     3    1   18 1
     4    2    3 ar
     5    2   19 1
     6    3    4 ar
     7    3    8 1
     8    4    5 ar
     9    4   20 1
    10    5    6 ar
    11    5    7 1
    12    6   21 1
    13    8    9 1
    14    8   22 1
    15    9   10 1
    16    9   23 1
    17    9   24 1
    18   10   11 2
    19   10   12 am
    20   12   13 1
    21   12   25 1
    22   13   17 1
    23   13   14 1
    24   13   26 1
    25   14   15 1
    26   14   27 1
    27   14   28 1
    28   15   16 1
    29   15   29 1
    30   15   30 1
    31   16   17 1
    32   16   31 1
    33   16   32 1
    34   17   33 1
    35   17   34 1
