@<TRIPOS>MOLECULE
ZINC00133996
   37    39     0     0     0
SMALL
USER_CHARGES
N-methyl-8-phenylsulfinyl-naphthalene-1-carboxamide
@<TRIPOS>ATOM
      1 C1          0.2512    5.6340    1.7194 C.3       1 <0>         0.0705
      2 N1          0.0058    5.8439    0.2905 N.am      1 <0>        -0.7201
      3 C2         -1.2548    5.9943   -0.1619 C.2       1 <0>         0.5547
      4 O1         -2.1886    5.9557    0.6161 O.2       1 <0>        -0.5148
      5 C3         -1.5017    6.2056   -1.6002 C.ar      1 <0>        -0.1471
      6 C4         -1.2143    7.4282   -2.1891 C.ar      1 <0>        -0.0510
      7 C5         -1.4438    7.6332   -3.5437 C.ar      1 <0>        -0.1296
      8 C6         -1.9558    6.6448   -4.3300 C.ar      1 <0>        -0.0684
      9 C7         -2.2623    5.3900   -3.7758 C.ar      1 <0>        -0.0709
     10 C8         -2.0350    5.1615   -2.3969 C.ar      1 <0>         0.0489
     11 C9         -2.3403    3.9097   -1.8458 C.ar      1 <0>        -0.4694
     12 C10        -2.8464    2.9270   -2.6425 C.ar      1 <0>        -0.0181
     13 C11        -3.0764    3.1514   -3.9979 C.ar      1 <0>        -0.1350
     14 C12        -2.7910    4.3549   -4.5666 C.ar      1 <0>        -0.0622
     15 S1         -2.0641    3.6058   -0.1324 S.o       1 <0>         1.4281
     16 O2         -3.2476    2.9452    0.2947 O.2       1 <0>        -0.8474
     17 C13        -0.8394    2.3391   -0.1161 C.ar      1 <0>        -0.4861
     18 C14        -1.2170    1.0140   -0.0050 C.ar      1 <0>        -0.0547
     19 C15        -0.2559    0.0205    0.0123 C.ar      1 <0>        -0.1346
     20 C16         1.0822    0.3515   -0.0914 C.ar      1 <0>        -0.0853
     21 C17         1.4596    1.6764   -0.2065 C.ar      1 <0>        -0.1373
     22 C18         0.4987    2.6702   -0.2188 C.ar      1 <0>        -0.0430
     23 H1          1.3226    5.5346    1.8934 H         1 <0>         0.0882
     24 H2         -0.1309    6.4855    2.2826 H         1 <0>         0.0741
     25 H3         -0.2557    4.7258    2.0455 H         1 <0>         0.0656
     26 H4          0.7507    5.8747   -0.3301 H         1 <0>         0.4107
     27 H5         -0.8078    8.2286   -1.5886 H         1 <0>         0.1374
     28 H6         -1.2128    8.5931   -3.9814 H         1 <0>         0.1362
     29 H7         -2.1263    6.8260   -5.3810 H         1 <0>         0.1357
     30 H8         -3.0766    1.9618   -2.2161 H         1 <0>         0.1231
     31 H9         -3.4825    2.3577   -4.6074 H         1 <0>         0.1313
     32 H10        -2.9696    4.5136   -5.6198 H         1 <0>         0.1371
     33 H11        -2.2627    0.7550    0.0716 H         1 <0>         0.1272
     34 H12        -0.5508   -1.0146    0.1022 H         1 <0>         0.1252
     35 H13         1.8328   -0.4249   -0.0821 H         1 <0>         0.1261
     36 H14         2.5050    1.9350   -0.2871 H         1 <0>         0.1285
     37 H15         0.7936    3.7052   -0.3091 H         1 <0>         0.1260
@<TRIPOS>BOND
     1    1    2 1
     2    1   23 1
     3    1   24 1
     4    1   25 1
     5    2    3 am
     6    2   26 1
     7    3    4 2
     8    3    5 1
     9    5   10 ar
    10    5    6 ar
    11    6    7 ar
    12    6   27 1
    13    7    8 ar
    14    7   28 1
    15    8    9 ar
    16    8   29 1
    17    9   14 ar
    18    9   10 ar
    19   10   11 ar
    20   11   12 ar
    21   11   15 1
    22   12   13 ar
    23   12   30 1
    24   13   14 ar
    25   13   31 1
    26   14   32 1
    27   15   16 2
    28   15   17 1
    29   17   22 ar
    30   17   18 ar
    31   18   19 ar
    32   18   33 1
    33   19   20 ar
    34   19   34 1
    35   20   21 ar
    36   20   35 1
    37   21   22 ar
    38   21   36 1
    39   22   37 1
