@<TRIPOS>MOLECULE
ZINC03046639
   67    70     0     0     0
SMALL
USER_CHARGES
N-[2-(methyl-phenethyl-amino)ethyl]-2-[(2Z)-3-oxo-2-(p-tolylmethylene)-1,4-benzothiazin-4-yl]acetamide
@<TRIPOS>ATOM
      1 C1          2.4531   -7.9353   11.8267 C.3       1 <0>        -0.1251
      2 C2          2.0027   -7.2202   10.5789 C.ar      1 <0>        -0.0586
      3 C3          1.3689   -5.9938   10.6792 C.ar      1 <0>        -0.1233
      4 C4          0.9529   -5.3336    9.5425 C.ar      1 <0>        -0.0792
      5 C5          1.1736   -5.9064    8.2853 C.ar      1 <0>        -0.0970
      6 C6          1.8107   -7.1486    8.1928 C.ar      1 <0>        -0.0735
      7 C7          2.2248   -7.7936    9.3389 C.ar      1 <0>        -0.1203
      8 C8          0.7328   -5.2094    7.0678 C.2       1 <0>         0.0415
      9 C9          1.4331   -5.3485    5.9164 C.2       1 <0>        -0.2315
     10 C10         0.9465   -4.7964    4.6322 C.2       1 <0>         0.5805
     11 O1         -0.2481   -4.6570    4.4491 O.2       1 <0>        -0.5079
     12 N1          1.8088   -4.4495    3.6726 N.am      1 <0>        -0.5260
     13 C11         3.1949   -4.4631    3.7593 C.ar      1 <0>         0.1672
     14 C12         3.9255   -3.6909    2.8571 C.ar      1 <0>        -0.1420
     15 C13         5.3038   -3.6730    2.9079 C.ar      1 <0>        -0.0844
     16 C14         5.9817   -4.4205    3.8543 C.ar      1 <0>        -0.1220
     17 C15         5.2746   -5.1809    4.7590 C.ar      1 <0>        -0.0557
     18 C16         3.8902   -5.2085    4.7108 C.ar      1 <0>        -0.1553
     19 S1          2.9869   -6.2024    5.8601 S.3       1 <0>         0.0481
     20 C17         1.2337   -4.0160    2.3969 C.3       1 <0>         0.0755
     21 C18         1.0149   -2.5252    2.4252 C.2       1 <0>         0.5089
     22 O2          1.3103   -1.8877    3.4138 O.2       1 <0>        -0.5093
     23 N2          0.4911   -1.9005    1.3521 N.am      1 <0>        -0.7447
     24 C19         0.2784   -0.4512    1.3796 C.3       1 <0>         0.0994
     25 C20        -0.3222    0.0015    0.0473 C.3       1 <0>        -0.0179
     26 N3         -0.5354    1.4547    0.0749 N.4       1 <0>        -0.3982
     27 C21         0.7440    2.1733    0.1437 C.3       1 <0>        -0.0580
     28 C22        -1.3238    1.8932   -1.0844 C.3       1 <0>        -0.0028
     29 C23        -1.7368    3.3545   -0.8971 C.3       1 <0>        -0.1007
     30 C24        -2.5456    3.8044   -2.0864 C.ar      1 <0>        -0.1090
     31 C25        -1.9136    4.3698   -3.1781 C.ar      1 <0>        -0.1102
     32 C26        -2.6550    4.7780   -4.2711 C.ar      1 <0>        -0.1142
     33 C27        -4.0294    4.6301   -4.2681 C.ar      1 <0>        -0.1038
     34 C28        -4.6620    4.0699   -3.1741 C.ar      1 <0>        -0.1139
     35 C29        -3.9200    3.6568   -2.0833 C.ar      1 <0>        -0.1101
     36 H1          2.1932   -7.3320   12.7090 H         1 <0>         0.0696
     37 H2          3.5425   -8.0832   11.7915 H         1 <0>         0.0759
     38 H3          1.9523   -8.9126   11.8902 H         1 <0>         0.0758
     39 H4          1.1993   -5.5531   11.6505 H         1 <0>         0.1299
     40 H5          0.4585   -4.3768    9.6224 H         1 <0>         0.1293
     41 H6          1.9806   -7.5993    7.2262 H         1 <0>         0.1264
     42 H7          2.7201   -8.7508    9.2690 H         1 <0>         0.1304
     43 H8         -0.1656   -4.5751    7.0919 H         1 <0>         0.1513
     44 H9          3.4086   -3.1030    2.1131 H         1 <0>         0.1191
     45 H10         5.8581   -3.0703    2.2037 H         1 <0>         0.1312
     46 H11         7.0610   -4.4010    3.8885 H         1 <0>         0.1366
     47 H12         5.8012   -5.7656    5.4988 H         1 <0>         0.1390
     48 H13         1.9236   -4.2699    1.5786 H         1 <0>         0.1249
     49 H14         0.2717   -4.5248    2.2366 H         1 <0>         0.1323
     50 H15         0.2233   -2.4788    0.4555 H         1 <0>         0.4326
     51 H16        -0.4115   -0.1973    2.1979 H         1 <0>         0.0872
     52 H17         1.2404    0.0576    1.5399 H         1 <0>         0.0874
     53 H18         0.3677   -0.2524   -0.7710 H         1 <0>         0.1357
     54 H19        -1.2842   -0.5073   -0.1130 H         1 <0>         0.1392
     55 H20         0.5554    3.2568    0.1631 H         1 <0>         0.1295
     56 H21         1.3530    1.9228   -0.7374 H         1 <0>         0.1227
     57 H22         1.2816    1.8783    1.0569 H         1 <0>         0.1270
     58 H23        -0.7177    1.7976   -1.9973 H         1 <0>         0.1307
     59 H24        -2.2234    1.2666   -1.1743 H         1 <0>         0.1339
     60 H25        -2.3429    3.4501    0.0158 H         1 <0>         0.0966
     61 H26        -0.8372    3.9812   -0.8072 H         1 <0>         0.0960
     62 H27        -0.8402    4.4891   -3.1787 H         1 <0>         0.1233
     63 H28        -2.1609    5.2160   -5.1257 H         1 <0>         0.1295
     64 H29        -4.6091    4.9524   -5.1205 H         1 <0>         0.1299
     65 H30        -5.7358    3.9546   -3.1716 H         1 <0>         0.1297
     66 H31        -4.4142    3.2192   -1.2285 H         1 <0>         0.1242
     67 H32        -1.1074    1.6952    0.9832 H         1 <0>         0.4465
@<TRIPOS>BOND
     1    1    2 1
     2    1   36 1
     3    1   37 1
     4    1   38 1
     5    2    7 ar
     6    2    3 ar
     7    3    4 ar
     8    3   39 1
     9    4    5 ar
    10    4   40 1
    11    5    6 ar
    12    5    8 1
    13    6    7 ar
    14    6   41 1
    15    7   42 1
    16    8    9 2
    17    8   43 1
    18    9   19 1
    19    9   10 1
    20   10   11 2
    21   10   12 am
    22   12   13 1
    23   12   20 1
    24   13   18 ar
    25   13   14 ar
    26   14   15 ar
    27   14   44 1
    28   15   16 ar
    29   15   45 1
    30   16   17 ar
    31   16   46 1
    32   17   18 ar
    33   17   47 1
    34   18   19 1
    35   20   21 1
    36   20   48 1
    37   20   49 1
    38   21   22 2
    39   21   23 am
    40   23   24 1
    41   23   50 1
    42   24   25 1
    43   24   51 1
    44   24   52 1
    45   25   26 1
    46   25   53 1
    47   25   54 1
    48   26   27 1
    49   26   28 1
    50   26   67 1
    51   27   55 1
    52   27   56 1
    53   27   57 1
    54   28   29 1
    55   28   58 1
    56   28   59 1
    57   29   30 1
    58   29   60 1
    59   29   61 1
    60   30   35 ar
    61   30   31 ar
    62   31   32 ar
    63   31   62 1
    64   32   33 ar
    65   32   63 1
    66   33   34 ar
    67   33   64 1
    68   34   35 ar
    69   34   65 1
    70   35   66 1
