@<TRIPOS>MOLECULE
ZINC01372553
   69    73     0     0     0
SMALL
USER_CHARGES

@<TRIPOS>ATOM
      1 C1          1.7060    0.5562    0.0797 C.3       1 <0>        -0.1203
      2 C2          2.4012   -0.3934    1.0210 C.ar      1 <0>        -0.0648
      3 C3          3.6307   -0.9268    0.6814 C.ar      1 <0>        -0.1160
      4 C4          4.2683   -1.7977    1.5447 C.ar      1 <0>        -0.1067
      5 C5          3.6769   -2.1351    2.7480 C.ar      1 <0>        -0.1223
      6 C6          2.4482   -1.6011    3.0878 C.ar      1 <0>        -0.0959
      7 C7          1.8124   -0.7266    2.2262 C.ar      1 <0>        -0.0902
      8 C8          0.4751   -0.1402    2.5991 C.3       1 <0>         0.1875
      9 H1          0.3647    0.8386    2.1324 H         1 <0>         0.1120
     10 C9         -0.6246   -1.0522    2.1196 C.2       1 <0>         0.5192
     11 O1         -0.9702   -1.9951    2.7996 O.2       1 <0>        -0.5093
     12 N1         -1.2241   -0.8201    0.9350 N.am      1 <0>        -0.7188
     13 C10        -2.3622   -1.6421    0.5165 C.3       1 <0>         0.1648
     14 C11        -2.8449   -1.1811   -0.8346 C.ar      1 <0>        -0.1143
     15 C12        -3.8120   -0.1974   -0.9244 C.ar      1 <0>        -0.0995
     16 C13        -4.2548    0.2254   -2.1637 C.ar      1 <0>        -0.1206
     17 C14        -3.7302   -0.3350   -3.3133 C.ar      1 <0>        -0.1089
     18 C15        -2.7625   -1.3181   -3.2236 C.ar      1 <0>        -0.1206
     19 C16        -2.3166   -1.7379   -1.9843 C.ar      1 <0>        -0.0991
     20 N2          0.3926    0.0008    4.0549 N.am      1 <0>        -0.5465
     21 C17        -0.5589   -0.7192    4.7708 C.ar      1 <0>         0.1811
     22 C18        -0.3083   -2.0345    5.1379 C.ar      1 <0>        -0.0812
     23 C19        -1.2533   -2.7469    5.8480 C.ar      1 <0>        -0.0775
     24 C20        -2.4583   -2.1588    6.2008 C.ar      1 <0>        -0.1182
     25 C21        -2.7269   -0.8557    5.8468 C.ar      1 <0>        -0.0704
     26 C22        -1.7768   -0.1170    5.1314 C.ar      1 <0>        -0.1782
     27 C23        -2.0531    1.2744    4.7551 C.2       1 <0>         0.3844
     28 O2         -1.2879    1.8687    4.0253 O.2       1 <0>        -0.4448
     29 C24        -3.2876    1.9648    5.2752 C.3       1 <0>        -0.2019
     30 C25         1.2383    0.8279    4.7009 C.2       1 <0>         0.5192
     31 O3          2.0675    1.4553    4.0769 O.2       1 <0>        -0.4873
     32 C26         1.1534    0.9729    6.1985 C.3       1 <0>         0.1234
     33 N3          2.1715    1.9219    6.6557 N.pl3     1 <0>        -0.3833
     34 C27         3.4617    1.6281    7.0279 C.ar      1 <0>         0.0981
     35 C28         4.2023    0.4533    7.1027 C.ar      1 <0>        -0.1222
     36 C29         5.5015    0.4949    7.5248 C.ar      1 <0>        -0.0636
     37 C30         6.0906    1.7014    7.8808 C.ar      1 <0>        -0.1351
     38 C31         5.3859    2.8675    7.8163 C.ar      1 <0>        -0.0325
     39 C32         4.0522    2.8524    7.3864 C.ar      1 <0>        -0.0157
     40 N4          3.1251    3.8171    7.2232 N.2       1 <0>        -0.2132
     41 N5          2.0235    3.3100    6.7940 N.2       1 <0>         0.0060
     42 H2          2.1496    1.5477    0.1705 H         1 <0>         0.0811
     43 H3          1.8185    0.2002   -0.9443 H         1 <0>         0.0760
     44 H4          0.6468    0.6076    0.3321 H         1 <0>         0.0534
     45 H5          4.0927   -0.6633   -0.2585 H         1 <0>         0.1259
     46 H6          5.2284   -2.2150    1.2791 H         1 <0>         0.1248
     47 H7          4.1748   -2.8162    3.4222 H         1 <0>         0.1236
     48 H8          1.9861   -1.8649    4.0276 H         1 <0>         0.1176
     49 H9         -0.9020   -0.1088    0.3596 H         1 <0>         0.4015
     50 H10        -2.0537   -2.6857    0.4554 H         1 <0>         0.0797
     51 H11        -3.1684   -1.5435    1.2434 H         1 <0>         0.0771
     52 H12        -4.2219    0.2405   -0.0262 H         1 <0>         0.1228
     53 H13        -5.0108    0.9935   -2.2339 H         1 <0>         0.1254
     54 H14        -4.0767   -0.0052   -4.2816 H         1 <0>         0.1248
     55 H15        -2.3529   -1.7562   -4.1217 H         1 <0>         0.1255
     56 H16        -1.5579   -2.5033   -1.9142 H         1 <0>         0.1239
     57 H17         0.6274   -2.5010    4.8671 H         1 <0>         0.1288
     58 H18        -1.0529   -3.7698    6.1305 H         1 <0>         0.1318
     59 H19        -3.1904   -2.7262    6.7562 H         1 <0>         0.1323
     60 H20        -3.6674   -0.4028    6.1239 H         1 <0>         0.1377
     61 H21        -3.8478    1.2780    5.9097 H         1 <0>         0.0841
     62 H22        -2.9969    2.8405    5.8555 H         1 <0>         0.0973
     63 H23        -3.9109    2.2751    4.4366 H         1 <0>         0.0949
     64 H24         0.1646    1.3409    6.4724 H         1 <0>         0.1259
     65 H25         1.3232    0.0038    6.6676 H         1 <0>         0.1251
     66 H26         3.7519   -0.4892    6.8285 H         1 <0>         0.1267
     67 H27         6.0751   -0.4184    7.5822 H         1 <0>         0.1379
     68 H28         7.1182    1.7163    8.2129 H         1 <0>         0.1381
     69 H29         5.8542    3.7996    8.0960 H         1 <0>         0.1395
@<TRIPOS>BOND
     1    1    2 1
     2    1   42 1
     3    1   43 1
     4    1   44 1
     5    2    7 ar
     6    2    3 ar
     7    3    4 ar
     8    3   45 1
     9    4    5 ar
    10    4   46 1
    11    5    6 ar
    12    5   47 1
    13    6    7 ar
    14    6   48 1
    15    7    8 1
    16    8    9 1
    17    8   10 1
    18    8   20 1
    19   10   11 2
    20   10   12 am
    21   12   13 1
    22   12   49 1
    23   13   14 1
    24   13   50 1
    25   13   51 1
    26   14   19 ar
    27   14   15 ar
    28   15   16 ar
    29   15   52 1
    30   16   17 ar
    31   16   53 1
    32   17   18 ar
    33   17   54 1
    34   18   19 ar
    35   18   55 1
    36   19   56 1
    37   20   21 1
    38   20   30 am
    39   21   26 ar
    40   21   22 ar
    41   22   23 ar
    42   22   57 1
    43   23   24 ar
    44   23   58 1
    45   24   25 ar
    46   24   59 1
    47   25   26 ar
    48   25   60 1
    49   26   27 1
    50   27   28 2
    51   27   29 1
    52   29   61 1
    53   29   62 1
    54   29   63 1
    55   30   31 2
    56   30   32 1
    57   32   33 1
    58   32   64 1
    59   32   65 1
    60   33   41 1
    61   33   34 1
    62   34   39 ar
    63   34   35 ar
    64   35   36 ar
    65   35   66 1
    66   36   37 ar
    67   36   67 1
    68   37   38 ar
    69   37   68 1
    70   38   39 ar
    71   38   69 1
    72   39   40 1
    73   40   41 2
