@<TRIPOS>MOLECULE
ZINC01419009
   73    77     0     0     0
SMALL
USER_CHARGES
2-[(2-benzotriazol-1-ylacetyl)-[(4-fluorophenyl)methyl]amino]-2-(1-cyclohex-3-enyl)-N-(4-dimethylaminophenyl)-acetamide
@<TRIPOS>ATOM
      1 C1        -11.1390   10.3118   -4.2961 C.3       1 <0>         0.0923
      2 N1        -10.6349    9.2846   -5.2109 N.pl3     1 <0>        -0.6390
      3 C2        -11.4748    8.8093   -6.3131 C.3       1 <0>         0.0889
      4 C3         -9.3515    8.7575   -5.0320 C.ar      1 <0>         0.2064
      5 C4         -8.5996    9.1217   -3.9224 C.ar      1 <0>        -0.1800
      6 C5         -7.3328    8.6018   -3.7462 C.ar      1 <0>        -0.0652
      7 C6         -6.8103    7.7152   -4.6784 C.ar      1 <0>         0.0804
      8 C7         -7.5597    7.3551   -5.7905 C.ar      1 <0>        -0.0904
      9 C8         -8.8288    7.8704   -5.9641 C.ar      1 <0>        -0.1812
     10 N2         -5.5240    7.1883   -4.4999 N.am      1 <0>        -0.6621
     11 C9         -5.0598    6.9501   -3.2572 C.2       1 <0>         0.5101
     12 O1         -5.7884    7.0984   -2.2988 O.2       1 <0>        -0.5130
     13 C10        -3.6356    6.4994   -3.0583 C.3       1 <0>         0.1315
     14 H1         -3.4107    5.6891   -3.7518 H         1 <0>         0.1261
     15 C11        -2.6884    7.6721   -3.3197 C.3       1 <0>        -0.1012
     16 H2         -2.9260    8.4929   -2.6430 H         1 <0>         0.0967
     17 C12        -1.2385    7.2235   -3.0968 C.3       1 <0>        -0.1036
     18 C13        -0.3312    8.4512   -3.1942 C.3       1 <0>        -0.0959
     19 C14        -0.6479    9.2352   -4.4340 C.2       1 <0>        -0.1486
     20 C15        -1.7400    9.1034   -5.1163 C.2       1 <0>        -0.1552
     21 C16        -2.8374    8.1406   -4.7688 C.3       1 <0>        -0.0963
     22 N3         -3.4604    6.0274   -1.6825 N.am      1 <0>        -0.5804
     23 C17        -3.8214    6.8953   -0.5588 C.3       1 <0>         0.1257
     24 C18        -2.6470    7.7696   -0.2018 C.ar      1 <0>        -0.1167
     25 C19        -1.6441    7.2798    0.6140 C.ar      1 <0>        -0.0869
     26 C20        -0.5638    8.0788    0.9375 C.ar      1 <0>        -0.1482
     27 C21        -0.4921    9.3741    0.4537 C.ar      1 <0>         0.1073
     28 C22        -1.4999    9.8654   -0.3587 C.ar      1 <0>        -0.1484
     29 C23        -2.5762    9.0626   -0.6858 C.ar      1 <0>        -0.0687
     30 F1          0.5603   10.1582    0.7745 F         1 <0>        -0.1363
     31 C24        -2.9670    4.7948   -1.4506 C.2       1 <0>         0.5050
     32 O2         -2.5758    4.1144   -2.3752 O.2       1 <0>        -0.5087
     33 C25        -2.9015    4.2621   -0.0424 C.3       1 <0>         0.1118
     34 N4         -2.4822    2.8586   -0.0703 N.pl3     1 <0>        -0.3856
     35 C26        -1.1933    2.3839   -0.0164 C.ar      1 <0>         0.0996
     36 C27         0.0562    2.9881    0.0734 C.ar      1 <0>        -0.1227
     37 C28         1.1833    2.2160    0.1073 C.ar      1 <0>        -0.0630
     38 C29         1.0930    0.8310    0.0524 C.ar      1 <0>        -0.1349
     39 C30        -0.1204    0.2140   -0.0359 C.ar      1 <0>        -0.0323
     40 C31        -1.2912    0.9830   -0.0773 C.ar      1 <0>        -0.0163
     41 N5         -2.5987    0.6676   -0.1663 N.2       1 <0>        -0.2118
     42 N6         -3.3164    1.7352   -0.1707 N.2       1 <0>         0.0029
     43 H3        -10.8784   11.2986   -4.6788 H         1 <0>         0.0488
     44 H4        -12.2228   10.2275   -4.2168 H         1 <0>         0.0667
     45 H5        -10.6908   10.1737   -3.3122 H         1 <0>         0.0691
     46 H6        -10.9649    7.9999   -6.8356 H         1 <0>         0.0774
     47 H7        -12.4228    8.4454   -5.9168 H         1 <0>         0.0563
     48 H8        -11.6618    9.6288   -7.0070 H         1 <0>         0.0529
     49 H9         -9.0060    9.8112   -3.1974 H         1 <0>         0.1262
     50 H10        -6.7481    8.8849   -2.8835 H         1 <0>         0.1321
     51 H11        -7.1514    6.6690   -6.5177 H         1 <0>         0.1247
     52 H12        -9.4133    7.5871   -6.8269 H         1 <0>         0.1283
     53 H13        -4.9677    6.9950   -5.2707 H         1 <0>         0.4099
     54 H14        -1.1426    6.7710   -2.1098 H         1 <0>         0.0674
     55 H15        -0.9565    6.5015   -3.8632 H         1 <0>         0.0661
     56 H16         0.7100    8.1301   -3.2259 H         1 <0>         0.0714
     57 H17        -0.4887    9.0808   -2.3185 H         1 <0>         0.0773
     58 H18         0.0805    9.9544   -4.7782 H         1 <0>         0.1034
     59 H19        -1.8696    9.7252   -5.9897 H         1 <0>         0.1061
     60 H20        -2.7860    7.2787   -5.4342 H         1 <0>         0.0774
     61 H21        -3.8012    8.6348   -4.8915 H         1 <0>         0.0803
     62 H22        -4.6680    7.5213   -0.8406 H         1 <0>         0.1309
     63 H23        -4.0928    6.2826    0.3009 H         1 <0>         0.0921
     64 H24        -1.7028    6.2711    0.9954 H         1 <0>         0.1254
     65 H25         0.2216    7.6946    1.5715 H         1 <0>         0.1380
     66 H26        -1.4448   10.8755   -0.7369 H         1 <0>         0.1382
     67 H27        -3.3624    9.4456   -1.3194 H         1 <0>         0.1352
     68 H28        -3.8851    4.3384    0.4211 H         1 <0>         0.1358
     69 H29        -2.1824    4.8447    0.5334 H         1 <0>         0.1273
     70 H30         0.1355    4.0644    0.1158 H         1 <0>         0.1271
     71 H31         2.1527    2.6868    0.1771 H         1 <0>         0.1381
     72 H32         1.9938    0.2358    0.0795 H         1 <0>         0.1382
     73 H33        -0.1783   -0.8636   -0.0784 H         1 <0>         0.1396
@<TRIPOS>BOND
     1    1    2 1
     2    1   43 1
     3    1   44 1
     4    1   45 1
     5    2    3 1
     6    2    4 1
     7    3   46 1
     8    3   47 1
     9    3   48 1
    10    4    9 ar
    11    4    5 ar
    12    5    6 ar
    13    5   49 1
    14    6    7 ar
    15    6   50 1
    16    7    8 ar
    17    7   10 1
    18    8    9 ar
    19    8   51 1
    20    9   52 1
    21   10   11 am
    22   10   53 1
    23   11   12 2
    24   11   13 1
    25   13   14 1
    26   13   15 1
    27   13   22 1
    28   15   16 1
    29   15   21 1
    30   15   17 1
    31   17   18 1
    32   17   54 1
    33   17   55 1
    34   18   19 1
    35   18   56 1
    36   18   57 1
    37   19   20 2
    38   19   58 1
    39   20   21 1
    40   20   59 1
    41   21   60 1
    42   21   61 1
    43   22   23 1
    44   22   31 am
    45   23   24 1
    46   23   62 1
    47   23   63 1
    48   24   29 ar
    49   24   25 ar
    50   25   26 ar
    51   25   64 1
    52   26   27 ar
    53   26   65 1
    54   27   28 ar
    55   27   30 1
    56   28   29 ar
    57   28   66 1
    58   29   67 1
    59   31   32 2
    60   31   33 1
    61   33   34 1
    62   33   68 1
    63   33   69 1
    64   34   42 1
    65   34   35 1
    66   35   40 ar
    67   35   36 ar
    68   36   37 ar
    69   36   70 1
    70   37   38 ar
    71   37   71 1
    72   38   39 ar
    73   38   72 1
    74   39   40 ar
    75   39   73 1
    76   40   41 1
    77   41   42 2
