@<TRIPOS>MOLECULE
ZINC04324054
   31    33     0     0     0
SMALL
USER_CHARGES
N-[(2-chlorophenyl)methyleneamino]-7-methyl-9-thia-2,4-diazabicyclo[4.3.0]nona-1,3,5,7-tetraen-5-amine
@<TRIPOS>ATOM
      1 C1         -3.8116   -0.8797   -1.1791 C.3       1 <0>        -0.1160
      2 C2         -3.5396   -2.3582   -1.0727 C.2       1 <0>        -0.0870
      3 C3         -4.4357   -3.2473   -1.5267 C.2       1 <0>        -0.1691
      4 S1         -3.6724   -4.8213   -1.1818 S.3       1 <0>         0.1118
      5 C4         -2.1707   -4.2426   -0.4373 C.ar      1 <0>         0.1488
      6 C5         -2.3073   -2.8369   -0.4722 C.ar      1 <0>        -0.2370
      7 C6         -1.2142   -2.1049    0.0686 C.ar      1 <0>         0.5055
      8 N1         -0.1780   -2.7641    0.5633 N.ar      1 <0>        -0.5462
      9 C7         -0.1207   -4.0832    0.5676 C.ar      1 <0>         0.3579
     10 N2         -1.1007   -4.8166    0.0754 N.ar      1 <0>        -0.5122
     11 N3         -1.2361   -0.7221    0.0828 N.pl3     1 <0>        -0.5639
     12 N4         -0.0361   -0.0033    0.1630 N.2       1 <0>        -0.1869
     13 C8         -0.0566    1.2945    0.1762 C.2       1 <0>         0.0828
     14 C9          1.2062    2.0510    0.2606 C.ar      1 <0>        -0.0449
     15 C10         1.1884    3.4479    0.2693 C.ar      1 <0>        -0.0812
     16 C11         2.3731    4.1489    0.3528 C.ar      1 <0>        -0.1207
     17 C12         3.5789    3.4725    0.4177 C.ar      1 <0>        -0.0924
     18 C13         3.6057    2.0896    0.4048 C.ar      1 <0>        -0.1177
     19 C14         2.4274    1.3740    0.3265 C.ar      1 <0>        -0.0135
     20 Cl1         2.4626   -0.3616    0.3092 Cl        1 <0>        -0.0162
     21 H1         -4.2214   -0.5169   -0.2365 H         1 <0>         0.0765
     22 H2         -2.8820   -0.3541   -1.3974 H         1 <0>         0.0667
     23 H3         -4.5280   -0.6988   -1.9804 H         1 <0>         0.0831
     24 H4         -5.3921   -3.0554   -1.9902 H         1 <0>         0.1974
     25 H5          0.7478   -4.5727    0.9830 H         1 <0>         0.2103
     26 H6         -2.0821   -0.2499    0.0372 H         1 <0>         0.3989
     27 H7         -0.9984    1.8203    0.1210 H         1 <0>         0.1235
     28 H8          0.2488    3.9776    0.2145 H         1 <0>         0.1365
     29 H9          2.3603    5.2288    0.3630 H         1 <0>         0.1340
     30 H10         4.5035    4.0273    0.4784 H         1 <0>         0.1344
     31 H11         4.5502    1.5685    0.4558 H         1 <0>         0.1367
@<TRIPOS>BOND
     1    1    2 1
     2    1   21 1
     3    1   22 1
     4    1   23 1
     5    2    6 1
     6    2    3 2
     7    3    4 1
     8    3   24 1
     9    4    5 1
    10    5   10 ar
    11    5    6 ar
    12    6    7 ar
    13    7    8 ar
    14    7   11 1
    15    8    9 ar
    16    9   10 ar
    17    9   25 1
    18   11   12 1
    19   11   26 1
    20   12   13 2
    21   13   14 1
    22   13   27 1
    23   14   19 ar
    24   14   15 ar
    25   15   16 ar
    26   15   28 1
    27   16   17 ar
    28   16   29 1
    29   17   18 ar
    30   17   30 1
    31   18   19 ar
    32   18   31 1
    33   19   20 1
