@<TRIPOS>MOLECULE
ZINC20291067
   67    70     0     0     0
SMALL
USER_CHARGES

@<TRIPOS>ATOM
      1 C1         -0.0187    1.5258    0.0104 C.3       1 <0>        -0.1522
      2 C2          0.0021   -0.0041    0.0020 C.3       1 <0>         0.0559
      3 O1         -1.3386   -0.4987    0.0122 O.3       1 <0>        -0.3454
      4 C3         -1.4971   -1.8382    0.0065 C.2       1 <0>         0.5318
      5 O2         -0.5226   -2.5659   -0.0067 O.2       1 <0>        -0.4939
      6 C4         -2.8425   -2.4162    0.0162 C.2       1 <0>        -0.2029
      7 C5         -3.5519   -2.7152   -1.2272 C.2       1 <0>        -0.0877
      8 C6         -4.7766   -3.2407   -1.0473 C.2       1 <0>        -0.2476
      9 S1         -4.9704   -3.3335    0.7145 S.3       1 <0>         0.3405
     10 C7         -3.4929   -2.7074    1.2021 C.2       1 <0>         0.0402
     11 N1         -3.0307   -2.5221    2.4957 N.am      1 <0>        -0.6190
     12 C8         -3.8055   -2.8653    3.5437 C.2       1 <0>         0.5182
     13 O3         -4.9071   -3.3362    3.3550 O.2       1 <0>        -0.4872
     14 C9         -3.3030   -2.6639    4.9501 C.3       1 <0>        -0.1209
     15 C10        -4.3681   -3.1311    5.9441 C.3       1 <0>        -0.0912
     16 S2         -3.7632   -2.8886    7.6370 S.3       1 <0>         0.0048
     17 C11        -5.0850   -3.4663    8.6488 C.2       1 <0>         0.1645
     18 N2         -6.2286   -3.9591    8.2329 N.2       1 <0>        -0.2843
     19 N3         -6.9580   -4.2803    9.2412 N.2       1 <0>        -0.2586
     20 C12        -6.3294   -4.0140   10.3510 C.2       1 <0>         0.1687
     21 N4         -5.1115   -3.4914   10.0137 N.pl3     1 <0>        -0.4482
     22 C13        -4.0557   -3.0475   10.9272 C.3       1 <0>         0.1315
     23 C14        -4.2545   -1.5899   11.2542 C.2       1 <0>        -0.1905
     24 C15        -4.3428   -1.2049   12.5032 C.2       1 <0>        -0.1479
     25 C16        -6.8462   -4.2451   11.7476 C.3       1 <0>         0.2201
     26 N5         -6.4645   -5.5873   12.1937 N.pl3     1 <0>        -0.7469
     27 C17        -6.8339   -6.0321   13.4652 C.ar      1 <0>         0.2098
     28 C18        -7.5683   -5.2052   14.3058 C.ar      1 <0>        -0.1925
     29 C19        -7.9323   -5.6483   15.5621 C.ar      1 <0>        -0.0717
     30 C20        -7.5662   -6.9134   15.9838 C.ar      1 <0>        -0.1413
     31 C21        -6.8352   -7.7392   15.1495 C.ar      1 <0>        -0.0717
     32 C22        -6.4727   -7.3045   13.8897 C.ar      1 <0>        -0.1863
     33 C23        -7.9644   -7.3932   17.3558 C.3       1 <0>        -0.1085
     34 C24        -5.4629   -3.5248   -2.3560 C.3       1 <0>        -0.0311
     35 C25        -4.6691   -2.7068   -3.3986 C.3       1 <0>        -0.1154
     36 C26        -3.2854   -2.5981   -2.7264 C.3       1 <0>        -0.0615
     37 H1          1.0039    1.9031    0.0027 H         1 <0>         0.0813
     38 H2         -0.5459    1.8868   -0.8726 H         1 <0>         0.0679
     39 H3         -0.5289    1.8773    0.9072 H         1 <0>         0.0665
     40 H4          0.5123   -0.3556   -0.8948 H         1 <0>         0.0692
     41 H5          0.5293   -0.3651    0.8851 H         1 <0>         0.0675
     42 H6         -2.1497   -2.1455    2.6466 H         1 <0>         0.4203
     43 H7         -2.3908   -3.2423    5.0964 H         1 <0>         0.1166
     44 H8         -3.0928   -1.6068    5.1130 H         1 <0>         0.1168
     45 H9         -5.2803   -2.5526    5.7979 H         1 <0>         0.1106
     46 H10        -4.5782   -4.1882    5.7813 H         1 <0>         0.1103
     47 H11        -4.0984   -3.6347   11.8446 H         1 <0>         0.1065
     48 H12        -3.0838   -3.1843   10.4531 H         1 <0>         0.1092
     49 H13        -4.3241   -0.8627   10.4588 H         1 <0>         0.1213
     50 H14        -4.2732   -1.9321   13.2987 H         1 <0>         0.1036
     51 H15        -4.4853   -0.1603   12.7375 H         1 <0>         0.1114
     52 H16        -6.4178   -3.5029   12.4211 H         1 <0>         0.0800
     53 H17        -7.9326   -4.1560   11.7525 H         1 <0>         0.0979
     54 H18        -5.9551   -6.1671   11.6061 H         1 <0>         0.4017
     55 H19        -7.8539   -4.2168   13.9773 H         1 <0>         0.1200
     56 H20        -8.5033   -5.0060   16.2162 H         1 <0>         0.1212
     57 H21        -6.5509   -8.7266   15.4819 H         1 <0>         0.1213
     58 H22        -5.9056   -7.9516   13.2369 H         1 <0>         0.1191
     59 H23        -8.9329   -7.8901   17.3000 H         1 <0>         0.0651
     60 H24        -7.2169   -8.0945   17.7266 H         1 <0>         0.0621
     61 H25        -8.0314   -6.5418   18.0331 H         1 <0>         0.0622
     62 H26        -5.4119   -4.5885   -2.5887 H         1 <0>         0.0863
     63 H27        -6.5002   -3.1918   -2.3213 H         1 <0>         0.0815
     64 H28        -4.6017   -3.2424   -4.3455 H         1 <0>         0.0856
     65 H29        -5.1122   -1.7211   -3.5405 H         1 <0>         0.0785
     66 H30        -2.8296   -1.6346   -2.9546 H         1 <0>         0.0738
     67 H31        -2.6393   -3.4104   -3.0595 H         1 <0>         0.0830
@<TRIPOS>BOND
     1    1    2 1
     2    1   37 1
     3    1   38 1
     4    1   39 1
     5    2    3 1
     6    2   40 1
     7    2   41 1
     8    3    4 1
     9    4    5 2
    10    4    6 1
    11    6   10 2
    12    6    7 1
    13    7   36 1
    14    7    8 2
    15    8    9 1
    16    8   34 1
    17    9   10 1
    18   10   11 1
    19   11   12 am
    20   11   42 1
    21   12   13 2
    22   12   14 1
    23   14   15 1
    24   14   43 1
    25   14   44 1
    26   15   16 1
    27   15   45 1
    28   15   46 1
    29   16   17 1
    30   17   21 1
    31   17   18 2
    32   18   19 1
    33   19   20 2
    34   20   21 1
    35   20   25 1
    36   21   22 1
    37   22   23 1
    38   22   47 1
    39   22   48 1
    40   23   24 2
    41   23   49 1
    42   24   50 1
    43   24   51 1
    44   25   26 1
    45   25   52 1
    46   25   53 1
    47   26   27 1
    48   26   54 1
    49   27   32 ar
    50   27   28 ar
    51   28   29 ar
    52   28   55 1
    53   29   30 ar
    54   29   56 1
    55   30   31 ar
    56   30   33 1
    57   31   32 ar
    58   31   57 1
    59   32   58 1
    60   33   59 1
    61   33   60 1
    62   33   61 1
    63   34   35 1
    64   34   62 1
    65   34   63 1
    66   35   36 1
    67   35   64 1
    68   35   65 1
    69   36   66 1
    70   36   67 1
