@<TRIPOS>MOLECULE
ZINC16110385
   31    33     0     0     0
SMALL
USER_CHARGES
5-bromo-N-[(4S)-6-fluorothiochroman-4-yl]thiophene-2-carboxamide
@<TRIPOS>ATOM
      1 C1          1.8451    3.0514   -4.0305 C.ar      1 <0>        -0.1311
      2 C2          2.9428    2.6899   -3.2794 C.ar      1 <0>        -0.0734
      3 C3          2.7889    2.2422   -1.9676 C.ar      1 <0>        -0.0796
      4 C4          1.5289    2.1643   -1.4041 C.ar      1 <0>        -0.0777
      5 C5          0.4264    2.5268   -2.1744 C.ar      1 <0>        -0.1348
      6 C6          0.5802    2.9660   -3.4735 C.ar      1 <0>         0.0969
      7 F1         -0.5035    3.3122   -4.2021 F         1 <0>        -0.1359
      8 C7          1.2475    1.7155   -0.0006 C.3       1 <0>         0.1870
      9 H1          1.1298    2.5983    0.6279 H         1 <0>         0.1091
     10 C8          2.3371    0.8400    0.5924 C.3       1 <0>        -0.1323
     11 C9          3.6508    1.6345    0.6369 C.3       1 <0>        -0.1032
     12 S1          4.2419    1.7857   -1.0750 S.3       1 <0>        -0.1076
     13 N1         -0.0111    0.9658    0.0074 N.am      1 <0>        -0.7176
     14 C10        -1.1873    1.6238    0.0165 C.2       1 <0>         0.6061
     15 O1         -1.2038    2.8408    0.0232 O.2       1 <0>        -0.5081
     16 C11        -2.4459    0.8741    0.0184 C.2       1 <0>        -0.2331
     17 C12        -3.7474    1.3518    0.0329 C.2       1 <0>        -0.0651
     18 C13        -4.7552    0.4206    0.0279 C.2       1 <0>        -0.1321
     19 C14        -4.4367   -0.9018    0.0195 C.2       1 <0>        -0.1857
     20 S2         -2.7031   -0.8913    0.0106 S.3       1 <0>         0.2044
     21 Br1        -5.6024   -2.3908    0.0183 Br        1 <0>         0.0535
     22 H2          1.9705    3.3985   -5.0455 H         1 <0>         0.1439
     23 H3          3.9310    2.7543   -3.7105 H         1 <0>         0.1410
     24 H4         -0.5639    2.4635   -1.7482 H         1 <0>         0.1473
     25 H5          2.0564    0.5429    1.6029 H         1 <0>         0.0986
     26 H6          2.4687   -0.0476   -0.0265 H         1 <0>         0.0907
     27 H7          3.4724    2.6242    1.0572 H         1 <0>         0.0991
     28 H8          4.3871    1.1015    1.2385 H         1 <0>         0.1242
     29 H9          0.0021   -0.0041    0.0020 H         1 <0>         0.4051
     30 H10        -3.9588    2.4108    0.0445 H         1 <0>         0.1584
     31 H11        -5.7888    0.7339    0.0345 H         1 <0>         0.1519
@<TRIPOS>BOND
     1    1    6 ar
     2    1    2 ar
     3    1   22 1
     4    2    3 ar
     5    2   23 1
     6    3   12 1
     7    3    4 ar
     8    4    5 ar
     9    4    8 1
    10    5    6 ar
    11    5   24 1
    12    6    7 1
    13    8    9 1
    14    8   10 1
    15    8   13 1
    16   10   11 1
    17   10   25 1
    18   10   26 1
    19   11   12 1
    20   11   27 1
    21   11   28 1
    22   13   14 am
    23   13   29 1
    24   14   15 2
    25   14   16 1
    26   16   20 1
    27   16   17 2
    28   17   18 1
    29   17   30 1
    30   18   19 2
    31   18   31 1
    32   19   20 1
    33   19   21 1
