@<TRIPOS>MOLECULE
ZINC01826755
   65    69     0     0     0
SMALL
USER_CHARGES
N-[[2-[(4-chlorophenyl)methoxy]phenyl]methyleneaminocarbamoyl-(4-oxo-3H-phthalazin-1-yl)-methyl]benzamide
@<TRIPOS>ATOM
      1 C1         -5.0234   14.4080    0.6162 C.ar      1 <0>        -0.0893
      2 C2         -6.2084   13.9140    1.1319 C.ar      1 <0>        -0.1285
      3 C3         -6.4521   12.5561    1.1300 C.ar      1 <0>        -0.0570
      4 C4         -5.4999   11.6801    0.6066 C.ar      1 <0>        -0.1364
      5 C5         -4.3040   12.1846    0.0931 C.ar      1 <0>        -0.0784
      6 C6         -4.0753   13.5451    0.0959 C.ar      1 <0>        -0.1251
      7 C7         -5.7541   10.2237    0.6016 C.2       1 <0>         0.5710
      8 O1         -6.7943    9.7868    1.0541 O.2       1 <0>        -0.5300
      9 N1         -4.8326    9.3805    0.0955 N.am      1 <0>        -0.6990
     10 C8         -5.0845    7.9373    0.0906 C.3       1 <0>         0.2041
     11 H1         -5.6449    7.6633    0.9845 H         1 <0>         0.1438
     12 C9         -5.8822    7.5708   -1.1343 C.2       1 <0>         0.1135
     13 C10        -6.7136    6.3669   -1.1325 C.ar      1 <0>        -0.0516
     14 C11        -6.8054    5.5365   -0.0138 C.ar      1 <0>        -0.1227
     15 C12        -7.6010    4.4259   -0.0591 C.ar      1 <0>        -0.0759
     16 C13        -8.3251    4.1129   -1.2023 C.ar      1 <0>        -0.1084
     17 C14        -8.2580    4.9165   -2.3193 C.ar      1 <0>        -0.0456
     18 C15        -7.4533    6.0549   -2.2960 C.ar      1 <0>        -0.1213
     19 C16        -7.3396    6.9514   -3.4529 C.2       1 <0>         0.5307
     20 O2         -7.9535    6.7209   -4.4794 O.2       1 <0>        -0.5134
     21 N2         -6.5416    8.0355   -3.3578 N.am      1 <0>        -0.5306
     22 H2         -6.4601    8.6503   -4.1423 H         1 <0>         0.4462
     23 N3         -5.8273    8.3213   -2.1940 N.2       1 <0>        -0.1965
     24 C17        -3.7714    7.1982    0.0747 C.2       1 <0>         0.5346
     25 O3         -2.7275    7.8162    0.0680 O.2       1 <0>        -0.4648
     26 N4         -3.7566    5.8505    0.0678 N.am      1 <0>        -0.5841
     27 N5         -2.5358    5.1633    0.0530 N.2       1 <0>        -0.1950
     28 C18        -2.5217    3.8655    0.0464 C.2       1 <0>         0.1091
     29 C19        -1.2374    3.1426    0.0308 C.ar      1 <0>        -0.0935
     30 C20        -1.2177    1.7461    0.0173 C.ar      1 <0>        -0.0491
     31 C21        -0.0126    1.0758    0.0080 C.ar      1 <0>        -0.1629
     32 C22         1.1786    1.7814    0.0004 C.ar      1 <0>        -0.0585
     33 C23         1.1725    3.1634    0.0079 C.ar      1 <0>        -0.2185
     34 C24        -0.0291    3.8527    0.0230 C.ar      1 <0>         0.1664
     35 O4         -0.0362    5.2107    0.0308 O.3       1 <0>        -0.2675
     36 C25         1.2336    5.8662    0.0227 C.3       1 <0>         0.0964
     37 C26         1.0284    7.3591    0.0331 C.ar      1 <0>        -0.0813
     38 C27         0.9288    8.0512   -1.1594 C.ar      1 <0>        -0.0759
     39 C28         0.7349    9.4196   -1.1505 C.ar      1 <0>        -0.1104
     40 C29         0.6519   10.0984    0.0523 C.ar      1 <0>        -0.0200
     41 C30         0.7573    9.4060    1.2454 C.ar      1 <0>        -0.1098
     42 C31         0.9455    8.0367    1.2352 C.ar      1 <0>        -0.0752
     43 Cl1         0.4149   11.8181    0.0643 Cl        1 <0>        -0.0711
     44 H3         -4.8378   15.4720    0.6195 H         1 <0>         0.1284
     45 H4         -6.9444   14.5929    1.5366 H         1 <0>         0.1312
     46 H5         -7.3775   12.1718    1.5328 H         1 <0>         0.1363
     47 H6         -3.5613   11.5117   -0.3093 H         1 <0>         0.1273
     48 H7         -3.1523   13.9371   -0.3052 H         1 <0>         0.1297
     49 H8         -4.0025    9.7291   -0.2655 H         1 <0>         0.4173
     50 H9         -6.2469    5.7679    0.8811 H         1 <0>         0.1360
     51 H10        -7.6671    3.7826    0.8059 H         1 <0>         0.1418
     52 H11        -8.9472    3.2302   -1.2158 H         1 <0>         0.1424
     53 H12        -8.8238    4.6672   -3.2048 H         1 <0>         0.1477
     54 H13        -4.5913    5.3563    0.0731 H         1 <0>         0.3813
     55 H14        -3.4510    3.3153    0.0523 H         1 <0>         0.1201
     56 H15        -2.1447    1.1920    0.0184 H         1 <0>         0.1353
     57 H16         0.0021   -0.0041    0.0020 H         1 <0>         0.1300
     58 H17         2.1181    1.2488   -0.0111 H         1 <0>         0.1283
     59 H18         2.1058    3.7068    0.0022 H         1 <0>         0.1319
     60 H19         1.8005    5.5711    0.9057 H         1 <0>         0.0722
     61 H20         1.7838    5.5813   -0.8741 H         1 <0>         0.0716
     62 H21         0.9980    7.5218   -2.0983 H         1 <0>         0.1285
     63 H22         0.6527    9.9596   -2.0822 H         1 <0>         0.1325
     64 H23         0.6922    9.9352    2.1846 H         1 <0>         0.1327
     65 H24         1.0275    7.4961    2.1665 H         1 <0>         0.1292
@<TRIPOS>BOND
     1    1    6 ar
     2    1    2 ar
     3    1   44 1
     4    2    3 ar
     5    2   45 1
     6    3    4 ar
     7    3   46 1
     8    4    5 ar
     9    4    7 1
    10    5    6 ar
    11    5   47 1
    12    6   48 1
    13    7    8 2
    14    7    9 am
    15    9   10 1
    16    9   49 1
    17   10   11 1
    18   10   12 1
    19   10   24 1
    20   12   23 2
    21   12   13 1
    22   13   18 ar
    23   13   14 ar
    24   14   15 ar
    25   14   50 1
    26   15   16 ar
    27   15   51 1
    28   16   17 ar
    29   16   52 1
    30   17   18 ar
    31   17   53 1
    32   18   19 1
    33   19   20 2
    34   19   21 am
    35   21   22 1
    36   21   23 1
    37   24   25 2
    38   24   26 am
    39   26   27 1
    40   26   54 1
    41   27   28 2
    42   28   29 1
    43   28   55 1
    44   29   34 ar
    45   29   30 ar
    46   30   31 ar
    47   30   56 1
    48   31   32 ar
    49   31   57 1
    50   32   33 ar
    51   32   58 1
    52   33   34 ar
    53   33   59 1
    54   34   35 1
    55   35   36 1
    56   36   37 1
    57   36   60 1
    58   36   61 1
    59   37   42 ar
    60   37   38 ar
    61   38   39 ar
    62   38   62 1
    63   39   40 ar
    64   39   63 1
    65   40   41 ar
    66   40   43 1
    67   41   42 ar
    68   41   64 1
    69   42   65 1
