@<TRIPOS>MOLECULE
ZINC01412456
   69    73     0     0     0
SMALL
USER_CHARGES
2-[(2-benzotriazol-1-ylacetyl)-(o-tolylmethyl)amino]-N-(4-dimethylaminophenyl)-2-(2-thienyl)acetamide
@<TRIPOS>ATOM
      1 C1         -7.4879    2.7623    1.3271 C.3       1 <0>        -0.1264
      2 C2         -8.4436    2.4078    0.2171 C.ar      1 <0>        -0.0264
      3 C3         -8.9886    1.1388    0.1531 C.ar      1 <0>        -0.1064
      4 C4         -9.8654    0.8138   -0.8647 C.ar      1 <0>        -0.0958
      5 C5        -10.1975    1.7577   -1.8187 C.ar      1 <0>        -0.1066
      6 C6         -9.6568    3.0279   -1.7517 C.ar      1 <0>        -0.1227
      7 C7         -8.7756    3.3514   -0.7366 C.ar      1 <0>        -0.0864
      8 C8         -8.1820    4.7348   -0.6665 C.3       1 <0>         0.1365
      9 N1         -6.8632    4.7331   -1.3046 N.am      1 <0>        -0.5817
     10 C9         -6.7167    4.2570   -2.6823 C.3       1 <0>         0.2188
     11 H1         -5.6795    4.3707   -2.9976 H         1 <0>         0.1452
     12 C10        -7.6090    5.0637   -3.5901 C.2       1 <0>        -0.1779
     13 C11        -7.3966    5.4511   -4.8716 C.2       1 <0>        -0.1309
     14 C12        -8.3682    6.1924   -5.5175 C.2       1 <0>        -0.1581
     15 C13        -9.5000    6.5190   -4.8469 C.2       1 <0>        -0.1776
     16 S1         -9.2166    5.7637   -3.2543 S.3       1 <0>         0.0741
     17 C14        -7.1077    2.8035   -2.7557 C.2       1 <0>         0.4991
     18 O1         -7.2021    2.1487   -1.7391 O.2       1 <0>        -0.4718
     19 N2         -7.3524    2.2310   -3.9511 N.am      1 <0>        -0.6610
     20 C15        -7.8267    0.9137   -4.0132 C.ar      1 <0>         0.0960
     21 C16        -7.3985   -0.0229   -3.0818 C.ar      1 <0>        -0.0599
     22 C17        -7.8694   -1.3195   -3.1399 C.ar      1 <0>        -0.1789
     23 C18        -8.7635   -1.6895   -4.1362 C.ar      1 <0>         0.2037
     24 C19        -9.1875   -0.7538   -5.0710 C.ar      1 <0>        -0.1808
     25 C20        -8.7202    0.5438   -5.0096 C.ar      1 <0>        -0.0935
     26 N3         -9.2373   -3.0043   -4.1979 N.pl3     1 <0>        -0.6398
     27 C21       -10.1808   -3.3943   -5.2486 C.3       1 <0>         0.0938
     28 C22        -8.7899   -3.9911   -3.2119 C.3       1 <0>         0.0941
     29 C23        -5.7848    5.1696   -0.6242 C.2       1 <0>         0.5088
     30 O2         -4.7006    5.2083   -1.1663 O.2       1 <0>        -0.5058
     31 C24        -5.9262    5.6096    0.8102 C.3       1 <0>         0.1044
     32 N4         -4.6018    5.9005    1.3646 N.pl3     1 <0>        -0.3854
     33 C25        -3.7666    5.0172    2.0064 C.ar      1 <0>         0.0967
     34 C26        -3.8520    3.6671    2.3294 C.ar      1 <0>        -0.1244
     35 C27        -2.8230    3.0612    2.9941 C.ar      1 <0>        -0.0629
     36 C28        -1.6860    3.7795    3.3416 C.ar      1 <0>        -0.1345
     37 C29        -1.5755    5.1033    3.0319 C.ar      1 <0>        -0.0327
     38 C30        -2.6187    5.7497    2.3553 C.ar      1 <0>        -0.0155
     39 N5         -2.7941    7.0149    1.9247 N.2       1 <0>        -0.2120
     40 N6         -3.9362    7.1352    1.3450 N.2       1 <0>         0.0056
     41 H2         -8.0283    3.2780    2.1209 H         1 <0>         0.0698
     42 H3         -7.0394    1.8520    1.7250 H         1 <0>         0.0712
     43 H4         -6.7049    3.4132    0.9383 H         1 <0>         0.0584
     44 H5         -8.7294    0.4015    0.8986 H         1 <0>         0.1122
     45 H6        -10.2914   -0.1774   -0.9145 H         1 <0>         0.1098
     46 H7        -10.8830    1.5039   -2.6138 H         1 <0>         0.1094
     47 H8         -9.9197    3.7666   -2.4944 H         1 <0>         0.1211
     48 H9         -8.0805    5.0342    0.3766 H         1 <0>         0.0978
     49 H10        -8.8352    5.4371   -1.1842 H         1 <0>         0.0869
     50 H11        -6.4832    5.1822   -5.3813 H         1 <0>         0.1371
     51 H12        -8.2257    6.5105   -6.5397 H         1 <0>         0.1367
     52 H13       -10.3519    7.0888   -5.1875 H         1 <0>         0.1859
     53 H14        -7.2003    2.7308   -4.7684 H         1 <0>         0.4049
     54 H15        -6.7001    0.2638   -2.3096 H         1 <0>         0.1350
     55 H16        -7.5398   -2.0468   -2.4127 H         1 <0>         0.1209
     56 H17        -9.8825   -1.0414   -5.8460 H         1 <0>         0.1228
     57 H18        -9.0499    1.2714   -5.7365 H         1 <0>         0.1195
     58 H19        -9.6288   -3.7456   -6.1205 H         1 <0>         0.0470
     59 H20       -10.8248   -4.1929   -4.8804 H         1 <0>         0.0653
     60 H21       -10.7906   -2.5348   -5.5267 H         1 <0>         0.0677
     61 H22        -9.4649   -3.9814   -2.3561 H         1 <0>         0.0470
     62 H23        -8.7910   -4.9829   -3.6642 H         1 <0>         0.0652
     63 H24        -7.7811   -3.7434   -2.8818 H         1 <0>         0.0679
     64 H25        -6.3960    4.8147    1.3894 H         1 <0>         0.1367
     65 H26        -6.5442    6.5064    0.8559 H         1 <0>         0.1370
     66 H27        -4.7307    3.1002    2.0594 H         1 <0>         0.1287
     67 H28        -2.8926    2.0136    3.2473 H         1 <0>         0.1383
     68 H29        -0.8802    3.2840    3.8628 H         1 <0>         0.1383
     69 H30        -0.6865    5.6516    3.3069 H         1 <0>         0.1398
@<TRIPOS>BOND
     1    1    2 1
     2    1   41 1
     3    1   42 1
     4    1   43 1
     5    2    7 ar
     6    2    3 ar
     7    3    4 ar
     8    3   44 1
     9    4    5 ar
    10    4   45 1
    11    5    6 ar
    12    5   46 1
    13    6    7 ar
    14    6   47 1
    15    7    8 1
    16    8    9 1
    17    8   48 1
    18    8   49 1
    19    9   10 1
    20    9   29 am
    21   10   11 1
    22   10   12 1
    23   10   17 1
    24   12   16 1
    25   12   13 2
    26   13   14 1
    27   13   50 1
    28   14   15 2
    29   14   51 1
    30   15   16 1
    31   15   52 1
    32   17   18 2
    33   17   19 am
    34   19   20 1
    35   19   53 1
    36   20   25 ar
    37   20   21 ar
    38   21   22 ar
    39   21   54 1
    40   22   23 ar
    41   22   55 1
    42   23   24 ar
    43   23   26 1
    44   24   25 ar
    45   24   56 1
    46   25   57 1
    47   26   27 1
    48   26   28 1
    49   27   58 1
    50   27   59 1
    51   27   60 1
    52   28   61 1
    53   28   62 1
    54   28   63 1
    55   29   30 2
    56   29   31 1
    57   31   32 1
    58   31   64 1
    59   31   65 1
    60   32   40 1
    61   32   33 1
    62   33   38 ar
    63   33   34 ar
    64   34   35 ar
    65   34   66 1
    66   35   36 ar
    67   35   67 1
    68   36   37 ar
    69   36   68 1
    70   37   38 ar
    71   37   69 1
    72   38   39 1
    73   39   40 2
