@<TRIPOS>MOLECULE
ZINC02726360
   38    40     0     0     0
SMALL
USER_CHARGES
2-methyl-N-(3-methylsulfanylphenyl)-quinoline-4-carboxamide
@<TRIPOS>ATOM
      1 C1         -4.9609    5.6525   -0.4808 C.3       1 <0>        -0.1086
      2 C2         -4.9376    4.1494   -0.3746 C.ar      1 <0>         0.1515
      3 C3         -3.7106    3.4968   -0.2801 C.ar      1 <0>        -0.1304
      4 C4         -3.6765    2.1119   -0.1822 C.ar      1 <0>        -0.0730
      5 C5         -4.9137    1.4182   -0.1887 C.ar      1 <0>        -0.0677
      6 C6         -4.9674    0.0219   -0.0882 C.ar      1 <0>        -0.1050
      7 C7         -6.1755   -0.6081   -0.0919 C.ar      1 <0>        -0.1123
      8 C8         -7.3600    0.1194   -0.1892 C.ar      1 <0>        -0.0939
      9 C9         -7.3443    1.4767   -0.2836 C.ar      1 <0>        -0.0975
     10 C10        -6.1156    2.1623   -0.2829 C.ar      1 <0>         0.1312
     11 N1         -6.0716    3.4941   -0.3741 N.ar      1 <0>        -0.4523
     12 C11        -2.3932    1.3844   -0.0808 C.2       1 <0>         0.5650
     13 O1         -2.3806    0.1690   -0.0981 O.2       1 <0>        -0.4989
     14 N2         -1.2376    2.0689    0.0307 N.am      1 <0>        -0.6636
     15 C12        -0.0178    1.3855    0.0330 C.ar      1 <0>         0.1591
     16 C13         1.1008    1.9569   -0.5622 C.ar      1 <0>        -0.1466
     17 C14         2.3081    1.2854   -0.5552 C.ar      1 <0>        -0.0792
     18 C15         2.4081    0.0437    0.0422 C.ar      1 <0>        -0.1460
     19 C16         1.2933   -0.5339    0.6390 C.ar      1 <0>        -0.0660
     20 C17         0.0787    0.1391    0.6343 C.ar      1 <0>        -0.1000
     21 S1          1.4217   -2.1172    1.4013 S.3       1 <0>        -0.1081
     22 C18         3.1584   -2.5816    1.1587 C.3       1 <0>        -0.1465
     23 H1         -4.9258    5.9431   -1.5308 H         1 <0>         0.0843
     24 H2         -5.8760    6.0346   -0.0284 H         1 <0>         0.0832
     25 H3         -4.0976    6.0670    0.0399 H         1 <0>         0.0793
     26 H4         -2.7916    4.0642   -0.2827 H         1 <0>         0.1419
     27 H5         -4.0559   -0.5523   -0.0122 H         1 <0>         0.1671
     28 H6         -6.2156   -1.6848   -0.0182 H         1 <0>         0.1315
     29 H7         -8.3056   -0.4024   -0.1901 H         1 <0>         0.1333
     30 H8         -8.2713    2.0256   -0.3590 H         1 <0>         0.1391
     31 H9         -1.2521    3.0355    0.1094 H         1 <0>         0.4136
     32 H10         1.0261    2.9272   -1.0305 H         1 <0>         0.1303
     33 H11         3.1756    1.7319   -1.0182 H         1 <0>         0.1325
     34 H12         3.3534   -0.4786    0.0459 H         1 <0>         0.1261
     35 H13        -0.7889   -0.3068    1.0978 H         1 <0>         0.1458
     36 H14         3.8021   -1.8427    1.6359 H         1 <0>         0.0848
     37 H15         3.3381   -3.5608    1.6026 H         1 <0>         0.1109
     38 H16         3.3785   -2.6204    0.0918 H         1 <0>         0.0849
@<TRIPOS>BOND
     1    1    2 1
     2    1   23 1
     3    1   24 1
     4    1   25 1
     5    2   11 ar
     6    2    3 ar
     7    3    4 ar
     8    3   26 1
     9    4    5 ar
    10    4   12 1
    11    5   10 ar
    12    5    6 ar
    13    6    7 ar
    14    6   27 1
    15    7    8 ar
    16    7   28 1
    17    8    9 ar
    18    8   29 1
    19    9   10 ar
    20    9   30 1
    21   10   11 ar
    22   12   13 2
    23   12   14 am
    24   14   15 1
    25   14   31 1
    26   15   20 ar
    27   15   16 ar
    28   16   17 ar
    29   16   32 1
    30   17   18 ar
    31   17   33 1
    32   18   19 ar
    33   18   34 1
    34   19   20 ar
    35   19   21 1
    36   20   35 1
    37   21   22 1
    38   22   36 1
    39   22   37 1
    40   22   38 1
