@<TRIPOS>MOLECULE
ZINC03430403
   31    33     0     0     0
SMALL
USER_CHARGES
N-[1-(2,4-dichlorophenyl)ethyl]-7-thia-3,5-diazabicyclo[4.3.0]nona-2,4,8,10-tetraen-2-amine
@<TRIPOS>ATOM
      1 C1          4.5811   -0.4284    1.4490 C.3       1 <0>        -0.1603
      2 C2          4.2342   -0.4621   -0.0408 C.3       1 <0>         0.1862
      3 H1          4.9558    0.1375   -0.5955 H         1 <0>         0.1136
      4 C3          4.2782   -1.8852   -0.5347 C.ar      1 <0>        -0.0778
      5 C4          3.1172   -2.6334   -0.5910 C.ar      1 <0>        -0.0847
      6 C5          3.1567   -3.9385   -1.0439 C.ar      1 <0>        -0.1034
      7 C6          4.3589   -4.4973   -1.4408 C.ar      1 <0>        -0.0252
      8 C7          5.5209   -3.7492   -1.3846 C.ar      1 <0>        -0.0995
      9 C8          5.4796   -2.4408   -0.9370 C.ar      1 <0>        -0.0134
     10 Cl1         6.9363   -1.4985   -0.8734 Cl        1 <0>        -0.0488
     11 Cl2         4.4085   -6.1367   -2.0096 Cl        1 <0>        -0.0548
     12 N1          2.8893    0.0830   -0.2415 N.pl3     1 <0>        -0.6977
     13 C9          2.5291    0.5996   -1.4731 C.ar      1 <0>         0.4915
     14 C10         1.2258    1.1311   -1.6776 C.ar      1 <0>        -0.2542
     15 C11         0.1111    1.2395   -0.7528 C.2       1 <0>        -0.1158
     16 C12        -1.0411    1.7796   -1.1765 C.2       1 <0>        -0.1677
     17 S1         -0.7042    2.1990   -2.8763 S.3       1 <0>         0.1046
     18 C13         0.9722    1.6294   -2.9741 C.ar      1 <0>         0.1495
     19 N2          1.8939    1.5951   -3.9164 N.ar      1 <0>        -0.5221
     20 C14         3.0856    1.0892   -3.6658 C.ar      1 <0>         0.3671
     21 N3          3.3926    0.6051   -2.4755 N.ar      1 <0>        -0.5813
     22 H2          4.5492    0.6009    1.8063 H         1 <0>         0.0732
     23 H3          3.8595   -1.0280    2.0038 H         1 <0>         0.0661
     24 H4          5.5817   -0.8340    1.5983 H         1 <0>         0.0815
     25 H5          2.1788   -2.1980   -0.2807 H         1 <0>         0.1352
     26 H6          2.2493   -4.5226   -1.0877 H         1 <0>         0.1394
     27 H7          6.4593   -4.1848   -1.6946 H         1 <0>         0.1461
     28 H8          2.2514    0.0818    0.4893 H         1 <0>         0.4132
     29 H9          0.2075    0.8854    0.2629 H         1 <0>         0.1360
     30 H10        -1.9551    1.9266   -0.6201 H         1 <0>         0.1962
     31 H11         3.8269    1.0698   -4.4510 H         1 <0>         0.2074
@<TRIPOS>BOND
     1    1    2 1
     2    1   22 1
     3    1   23 1
     4    1   24 1
     5    2    3 1
     6    2    4 1
     7    2   12 1
     8    4    9 ar
     9    4    5 ar
    10    5    6 ar
    11    5   25 1
    12    6    7 ar
    13    6   26 1
    14    7    8 ar
    15    7   11 1
    16    8    9 ar
    17    8   27 1
    18    9   10 1
    19   12   13 1
    20   12   28 1
    21   13   21 ar
    22   13   14 ar
    23   14   18 ar
    24   14   15 1
    25   15   16 2
    26   15   29 1
    27   16   17 1
    28   16   30 1
    29   17   18 1
    30   18   19 ar
    31   19   20 ar
    32   20   21 ar
    33   20   31 1
