@<TRIPOS>MOLECULE
ZINC20133134
   33    34     0     0     0
SMALL
USER_CHARGES
2-bromo-N-(5,6-dimethyl-1,3-benzothiazol-2-yl)-2-methyl-propanamide
@<TRIPOS>ATOM
      1 C1          1.4850    1.5745    2.4245 C.3       1 <0>        -0.1163
      2 C2         -0.0037    1.8087    2.4131 C.ar      1 <0>        -0.0733
      3 C3         -0.6209    2.2504    3.5544 C.ar      1 <0>        -0.0661
      4 C4         -2.0157    2.4799    3.5789 C.ar      1 <0>         0.0990
      5 C5         -2.7109    2.2284    2.3736 C.ar      1 <0>        -0.1779
      6 C6         -2.0835    1.7917    1.2340 C.ar      1 <0>        -0.0583
      7 C7         -0.7181    1.5718    1.2479 C.ar      1 <0>        -0.0683
      8 C8         -0.0127    1.0858    0.0080 C.3       1 <0>        -0.1139
      9 S1         -4.3857    2.6265    2.8131 S.3       1 <0>         0.0902
     10 C9         -4.0691    3.0861    4.5110 C.2       1 <0>         0.3612
     11 N1         -2.7723    2.9102    4.6116 N.2       1 <0>        -0.5405
     12 N2         -4.9647    3.5185    5.4755 N.am      1 <0>        -0.6193
     13 C10        -6.2733    3.6363    5.1755 C.2       1 <0>         0.5305
     14 O1         -6.6669    3.3638    4.0613 O.2       1 <0>        -0.4751
     15 C11        -7.2475    4.1066    6.2247 C.3       1 <0>        -0.0373
     16 C12        -7.0042    5.5882    6.5190 C.3       1 <0>        -0.1503
     17 C13        -8.6775    3.9160    5.7150 C.3       1 <0>        -0.1374
     18 Br1        -6.9936    3.0613    7.8703 Br        1 <0>        -0.1089
     19 H1          1.8857    1.8108    3.4213 H         1 <0>         0.0677
     20 H2          1.9636    2.2210    1.6742 H         1 <0>         0.0742
     21 H3          1.6922    0.5208    2.1863 H         1 <0>         0.0743
     22 H4         -0.0353    2.4247    4.4450 H         1 <0>         0.1321
     23 H5         -2.6531    1.6162    0.3334 H         1 <0>         0.1330
     24 H6         -0.7441    0.9581   -0.8037 H         1 <0>         0.0686
     25 H7          0.4747    0.1222    0.2174 H         1 <0>         0.0754
     26 H8          0.7461    1.8224   -0.2947 H         1 <0>         0.0753
     27 H9         -4.6077    3.7657    6.4862 H         1 <0>         0.4567
     28 H10        -7.7153    5.9315    7.2848 H         1 <0>         0.0928
     29 H11        -7.1463    6.1730    5.5983 H         1 <0>         0.0855
     30 H12        -5.9761    5.7252    6.8855 H         1 <0>         0.0761
     31 H13        -9.3885    4.2593    6.4809 H         1 <0>         0.0850
     32 H14        -8.8524    2.8508    5.5034 H         1 <0>         0.0782
     33 H15        -8.8196    4.5009    4.7943 H         1 <0>         0.0871
@<TRIPOS>BOND
     1    1    2 1
     2    1   19 1
     3    1   20 1
     4    1   21 1
     5    2    7 ar
     6    2    3 ar
     7    3    4 ar
     8    3   22 1
     9    4   11 1
    10    4    5 ar
    11    5    6 ar
    12    5    9 1
    13    6    7 ar
    14    6   23 1
    15    7    8 1
    16    8   24 1
    17    8   25 1
    18    8   26 1
    19    9   10 1
    20   10   11 2
    21   10   12 1
    22   12   13 am
    23   12   27 1
    24   13   14 2
    25   13   15 1
    26   15   16 1
    27   15   17 1
    28   15   18 1
    29   16   28 1
    30   16   29 1
    31   16   30 1
    32   17   31 1
    33   17   32 1
    34   17   33 1
