@<TRIPOS>MOLECULE
ZINC03310109
   68    70     0     0     0
SMALL
USER_CHARGES
2-[(2Z,5R)-3-(3-dimethylamino-2,2-dimethyl-propyl)-2-(2,3-dimethylphenyl)imino-4-oxo-thiazolidin-5-yl]-N-(2-fluorophenyl)acetamide
@<TRIPOS>ATOM
      1 C1          1.4705    6.3696    1.9221 C.3       1 <0>        -0.1200
      2 C2          1.5648    5.2645    0.9019 C.ar      1 <0>        -0.0728
      3 C3          2.5903    5.2685   -0.0273 C.ar      1 <0>        -0.1079
      4 C4          2.6841    4.2582   -0.9677 C.ar      1 <0>        -0.1009
      5 C5          1.7548    3.2386   -0.9845 C.ar      1 <0>        -0.1415
      6 C6          0.7177    3.2283   -0.0499 C.ar      1 <0>         0.0855
      7 C7          0.6254    4.2547    0.8926 C.ar      1 <0>        -0.0596
      8 C8         -0.4944    4.2555    1.9011 C.3       1 <0>        -0.1110
      9 N1         -0.2081    2.2193   -0.0609 N.2       1 <0>        -0.4507
     10 C9          0.1834    0.9706   -0.1605 C.2       1 <0>         0.3833
     11 N2         -0.5876   -0.1711   -0.0974 N.am      1 <0>        -0.5399
     12 C10        -0.0700   -1.3817   -0.2173 C.2       1 <0>         0.5328
     13 O1         -0.7528   -2.3823   -0.1657 O.2       1 <0>        -0.4685
     14 C11         1.4358   -1.4409   -0.4172 C.3       1 <0>        -0.0856
     15 H1          1.9238   -1.9633    0.4057 H         1 <0>         0.1645
     16 S1          1.8412    0.3502   -0.4018 S.3       1 <0>        -0.0764
     17 C12         1.7918   -2.0782   -1.7619 C.3       1 <0>        -0.1155
     18 C13         3.2873   -2.0591   -1.9465 C.2       1 <0>         0.5176
     19 O2          3.9985   -1.5828   -1.0872 O.2       1 <0>        -0.4997
     20 N3          3.8346   -2.5715   -3.0666 N.am      1 <0>        -0.6624
     21 C14         5.2270   -2.6554   -3.1904 C.ar      1 <0>         0.1114
     22 C15         6.0245   -2.7075   -2.0555 C.ar      1 <0>        -0.1045
     23 C16         7.3977   -2.7907   -2.1806 C.ar      1 <0>        -0.1054
     24 C17         7.9794   -2.8226   -3.4348 C.ar      1 <0>        -0.1031
     25 C18         7.1894   -2.7709   -4.5684 C.ar      1 <0>        -0.1308
     26 C19         5.8136   -2.6924   -4.4506 C.ar      1 <0>         0.0678
     27 F1          5.0411   -2.6476   -5.5581 F         1 <0>        -0.1386
     28 C20        -2.0325   -0.0374    0.1043 C.3       1 <0>         0.1112
     29 C21        -2.7301    0.0610   -1.2538 C.3       1 <0>        -0.1034
     30 C22        -2.2054    1.2836   -2.0093 C.3       1 <0>        -0.1579
     31 C23        -2.4434   -1.2029   -2.0671 C.3       1 <0>        -0.1696
     32 C24        -4.2391    0.2005   -1.0431 C.3       1 <0>         0.0056
     33 C25        -5.2253   -1.0834   -2.8435 C.3       1 <0>        -0.0646
     34 C26        -6.1221    1.0929   -2.2762 C.3       1 <0>        -0.0434
     35 H2          0.8615    7.1810    1.5236 H         1 <0>         0.0751
     36 H3          1.0120    5.9850    2.8332 H         1 <0>         0.0713
     37 H4          2.4697    6.7423    2.1476 H         1 <0>         0.0721
     38 H5          3.3208    6.0639   -0.0182 H         1 <0>         0.1294
     39 H6          3.4869    4.2674   -1.6901 H         1 <0>         0.1289
     40 H7          1.8292    2.4504   -1.7191 H         1 <0>         0.1270
     41 H8         -0.1808    3.7127    2.7927 H         1 <0>         0.0692
     42 H9         -0.7412    5.2828    2.1691 H         1 <0>         0.0710
     43 H10        -1.3713    3.7717    1.4708 H         1 <0>         0.0708
     44 H11         1.4364   -3.1084   -1.7811 H         1 <0>         0.1298
     45 H12         1.3191   -1.5156   -2.5670 H         1 <0>         0.1102
     46 H13         3.2640   -2.8821   -3.7869 H         1 <0>         0.4157
     47 H14         5.5717   -2.6827   -1.0753 H         1 <0>         0.1552
     48 H15         8.0181   -2.8312   -1.2975 H         1 <0>         0.1364
     49 H16         9.0533   -2.8877   -3.5290 H         1 <0>         0.1376
     50 H17         7.6468   -2.7960   -5.5464 H         1 <0>         0.1422
     51 H18        -2.4063   -0.9085    0.6426 H         1 <0>         0.1077
     52 H19        -2.2367    0.8629    0.6838 H         1 <0>         0.1122
     53 H20        -1.1491    1.1431   -2.2389 H         1 <0>         0.0775
     54 H21        -2.7655    1.4058   -2.9363 H         1 <0>         0.0488
     55 H22        -2.3277    2.1728   -1.3909 H         1 <0>         0.0919
     56 H23        -2.9414   -2.0543   -1.6032 H         1 <0>         0.0835
     57 H24        -2.8162   -1.0734   -3.0832 H         1 <0>         0.0628
     58 H25        -1.3685   -1.3813   -2.0945 H         1 <0>         0.0750
     59 H26        -4.6090   -0.6592   -0.4845 H         1 <0>         0.1374
     60 H27        -4.4450    1.1131   -0.4838 H         1 <0>         0.1363
     61 H28        -5.9642   -1.5482   -2.1908 H         1 <0>         0.1257
     62 H29        -5.6262   -1.0140   -3.8548 H         1 <0>         0.1219
     63 H30        -4.3179   -1.6874   -2.8531 H         1 <0>         0.1333
     64 H31        -5.8434    2.1243   -2.0599 H         1 <0>         0.1219
     65 H32        -6.6480    1.0510   -3.2300 H         1 <0>         0.1230
     66 H33        -6.7729    0.7190   -1.4858 H         1 <0>         0.1251
     67 N4         -4.8939    0.2756   -2.3661 N.4       1 <0>        -0.3979
     68 H34        -4.2488    0.7153   -3.0330 H         1 <0>         0.4258
@<TRIPOS>BOND
     1    1    2 1
     2    1   35 1
     3    1   36 1
     4    1   37 1
     5    2    7 ar
     6    2    3 ar
     7    3    4 ar
     8    3   38 1
     9    4    5 ar
    10    4   39 1
    11    5    6 ar
    12    5   40 1
    13    6    7 ar
    14    6    9 1
    15    7    8 1
    16    8   41 1
    17    8   42 1
    18    8   43 1
    19    9   10 2
    20   10   16 1
    21   10   11 1
    22   11   12 am
    23   11   28 1
    24   12   13 2
    25   12   14 1
    26   14   15 1
    27   14   16 1
    28   14   17 1
    29   17   18 1
    30   17   44 1
    31   17   45 1
    32   18   19 2
    33   18   20 am
    34   20   21 1
    35   20   46 1
    36   21   26 ar
    37   21   22 ar
    38   22   23 ar
    39   22   47 1
    40   23   24 ar
    41   23   48 1
    42   24   25 ar
    43   24   49 1
    44   25   26 ar
    45   25   50 1
    46   26   27 1
    47   28   29 1
    48   28   51 1
    49   28   52 1
    50   29   30 1
    51   29   31 1
    52   29   32 1
    53   30   53 1
    54   30   54 1
    55   30   55 1
    56   31   56 1
    57   31   57 1
    58   31   58 1
    59   32   59 1
    60   32   60 1
    61   32   67 1
    62   33   61 1
    63   33   62 1
    64   33   63 1
    65   33   67 1
    66   34   64 1
    67   34   65 1
    68   34   66 1
    69   34   67 1
    70   67   68 1
