@<TRIPOS>MOLECULE
ZINC20368548
   24    25     0     0     0
SMALL
USER_CHARGES
6-[(3-iodophenyl)amino]pyridine-3-carbonitrile
@<TRIPOS>ATOM
      1 C1          2.1581    8.3366   -0.2611 C.ar      1 <0>        -0.0933
      2 C2          1.0009    7.5891   -0.3607 C.ar      1 <0>        -0.1347
      3 C3          0.9694    6.2913    0.1332 C.ar      1 <0>         0.1665
      4 C4          2.1012    5.7510    0.7308 C.ar      1 <0>        -0.0858
      5 C5          3.2569    6.5020    0.8225 C.ar      1 <0>        -0.0795
      6 C6          3.2846    7.7946    0.3294 C.ar      1 <0>        -0.1069
      7 I1          4.9668    5.6863    1.7169 I         1 <0>        -0.0391
      8 N1         -0.2002    5.5326    0.0343 N.pl3     1 <0>        -0.6648
      9 C7         -0.1230    4.1592   -0.1414 C.ar      1 <0>         0.4181
     10 C8         -1.2896    3.3973   -0.1203 C.ar      1 <0>        -0.2237
     11 C9         -1.2100    2.0418   -0.2945 C.ar      1 <0>         0.0143
     12 C10         0.0547    1.4652   -0.4896 C.ar      1 <0>        -0.1373
     13 C11         1.1817    2.2889   -0.4934 C.ar      1 <0>         0.2055
     14 N2          1.0597    3.5897   -0.3276 N.ar      1 <0>        -0.5304
     15 C12         0.1875    0.0516   -0.6763 C.1       1 <0>         0.2593
     16 N3          0.2928   -1.0698   -0.8244 N.1       1 <0>        -0.4158
     17 H1          2.1829    9.3459   -0.6447 H         1 <0>         0.1341
     18 H2          0.1215    8.0132   -0.8225 H         1 <0>         0.1303
     19 H3          2.0787    4.7436    1.1194 H         1 <0>         0.1437
     20 H4          4.1880    8.3814    0.4063 H         1 <0>         0.1292
     21 H5         -1.1820    6.0249    0.0958 H         1 <0>         0.4496
     22 H6         -2.2478    3.8719    0.0318 H         1 <0>         0.1454
     23 H7         -2.0999    1.4301   -0.2818 H         1 <0>         0.1462
     24 H8          2.1608    1.8566   -0.6381 H         1 <0>         0.1692
@<TRIPOS>BOND
     1    1    6 ar
     2    1    2 ar
     3    1   17 1
     4    2    3 ar
     5    2   18 1
     6    3    4 ar
     7    3    8 1
     8    4    5 ar
     9    4   19 1
    10    5    6 ar
    11    5    7 1
    12    6   20 1
    13    8    9 1
    14    8   21 1
    15    9   14 ar
    16    9   10 ar
    17   10   11 ar
    18   10   22 1
    19   11   12 ar
    20   11   23 1
    21   12   13 ar
    22   12   15 1
    23   13   14 ar
    24   13   24 1
    25   15   16 3
