@<TRIPOS>MOLECULE
ZINC04033004
   41    44     0     0     0
SMALL
USER_CHARGES

@<TRIPOS>ATOM
      1 C1          2.0078   -4.4076    3.3517 C.3       1 <0>        -0.1325
      2 C2          1.2997   -3.8196    2.1584 C.ar      1 <0>        -0.0150
      3 C3          1.3773   -4.4451    0.9310 C.ar      1 <0>        -0.1316
      4 C4          0.7276   -3.9069   -0.1653 C.ar      1 <0>        -0.0848
      5 C5         -0.0036   -2.7388   -0.0394 C.ar      1 <0>        -0.1357
      6 C6         -0.0890   -2.1032    1.1818 C.ar      1 <0>        -0.0813
      7 C7          0.5592   -2.6443    2.2936 C.ar      1 <0>        -0.1453
      8 C8          0.4671   -1.9719    3.6067 C.2       1 <0>         0.5580
      9 O1          1.0886   -2.4062    4.5569 O.2       1 <0>        -0.5000
     10 N1         -0.3060   -0.8773    3.7505 N.am      1 <0>        -0.6716
     11 C9         -0.3124   -0.1800    4.9629 C.ar      1 <0>         0.1428
     12 C10        -0.4454    1.2035    4.9685 C.ar      1 <0>        -0.1363
     13 C11        -0.4517    1.8958    6.1643 C.ar      1 <0>        -0.0999
     14 C12        -0.3262    1.2172    7.3603 C.ar      1 <0>        -0.1152
     15 C13        -0.1927   -0.1701    7.3643 C.ar      1 <0>        -0.0004
     16 C14        -0.1916   -0.8692    6.1600 C.ar      1 <0>        -0.0859
     17 C15        -0.0573   -0.9007    8.6488 C.2       1 <0>         0.1174
     18 C16        -0.1491   -0.3524    9.8914 C.2       1 <0>        -0.0793
     19 N2          0.0348   -1.3658   10.7898 N.pl3     1 <0>        -0.3979
     20 C17         0.0463   -1.3985   12.1544 C.2       1 <0>         0.1101
     21 C18         0.2585   -2.5804   12.7837 C.2       1 <0>        -0.2048
     22 C19         0.4606   -3.7386   12.0200 C.2       1 <0>         0.1717
     23 N3          0.4453   -3.6803   10.7091 N.2       1 <0>        -0.4349
     24 C20         0.2361   -2.5180   10.0728 C.2       1 <0>         0.3816
     25 N4          0.1711   -2.2178    8.7846 N.2       1 <0>        -0.4535
     26 H1          1.3036   -4.9989    3.9370 H         1 <0>         0.0766
     27 H2          2.8237   -5.0456    3.0121 H         1 <0>         0.0602
     28 H3          2.4081   -3.6035    3.9692 H         1 <0>         0.1033
     29 H4          1.9469   -5.3566    0.8258 H         1 <0>         0.1313
     30 H5          0.7915   -4.4004   -1.1238 H         1 <0>         0.1290
     31 H6         -0.5082   -2.3237   -0.8993 H         1 <0>         0.1300
     32 H7         -0.6594   -1.1912    1.2785 H         1 <0>         0.1252
     33 H8         -0.8580   -0.5731    3.0132 H         1 <0>         0.4100
     34 H9         -0.5439    1.7389    4.0357 H         1 <0>         0.1280
     35 H10        -0.5546    2.9708    6.1635 H         1 <0>         0.1323
     36 H11        -0.3311    1.7617    8.2930 H         1 <0>         0.1262
     37 H12        -0.0926   -1.9447    6.1582 H         1 <0>         0.1526
     38 H13        -0.3321    0.6864   10.1233 H         1 <0>         0.1909
     39 H14        -0.1112   -0.4951   12.7249 H         1 <0>         0.1765
     40 H15         0.2720   -2.6292   13.8625 H         1 <0>         0.1672
     41 H16         0.6304   -4.6842   12.5133 H         1 <0>         0.1848
@<TRIPOS>BOND
     1    1    2 1
     2    1   26 1
     3    1   27 1
     4    1   28 1
     5    2    7 ar
     6    2    3 ar
     7    3    4 ar
     8    3   29 1
     9    4    5 ar
    10    4   30 1
    11    5    6 ar
    12    5   31 1
    13    6    7 ar
    14    6   32 1
    15    7    8 1
    16    8    9 2
    17    8   10 am
    18   10   11 1
    19   10   33 1
    20   11   16 ar
    21   11   12 ar
    22   12   13 ar
    23   12   34 1
    24   13   14 ar
    25   13   35 1
    26   14   15 ar
    27   14   36 1
    28   15   16 ar
    29   15   17 1
    30   16   37 1
    31   17   25 1
    32   17   18 2
    33   18   19 1
    34   18   38 1
    35   19   24 1
    36   19   20 1
    37   20   21 2
    38   20   39 1
    39   21   22 1
    40   21   40 1
    41   22   23 2
    42   22   41 1
    43   23   24 1
    44   24   25 2
