@<TRIPOS>MOLECULE
ZINC00888158
   74    79     0     0     0
SMALL
USER_CHARGES

@<TRIPOS>ATOM
      1 C1         -0.8352    1.4788    0.3068 C.3       1 <0>        -0.1176
      2 C2         -0.6101   -0.0076    0.2020 C.ar      1 <0>        -0.0807
      3 C3         -0.5943   -0.6181   -1.0389 C.ar      1 <0>        -0.0997
      4 C4         -0.3877   -1.9815   -1.1392 C.ar      1 <0>        -0.1070
      5 C5         -0.1963   -2.7383    0.0004 C.ar      1 <0>        -0.0747
      6 C6         -0.2115   -2.1283    1.2477 C.ar      1 <0>         0.1026
      7 C7         -0.4141   -0.7577    1.3448 C.ar      1 <0>        -0.1047
      8 N1         -0.0184   -2.8922    2.4040 N.am      1 <0>        -0.5448
      9 C8         -1.1545   -3.5724    3.0308 C.3       1 <0>         0.2217
     10 H1         -2.0356   -3.4665    2.3979 H         1 <0>         0.1216
     11 C9         -1.4274   -2.9563    4.3788 C.2       1 <0>        -0.2026
     12 C10        -0.5812   -2.2024    5.0982 C.2       1 <0>         0.1061
     13 N2         -1.1768   -1.8208    6.2695 N.pl3     1 <0>        -0.5904
     14 H2         -0.7616   -1.2714    6.9526 H         1 <0>         0.4188
     15 C11        -2.4533   -2.3329    6.3341 C.ar      1 <0>         0.0982
     16 C12        -2.6686   -3.0614    5.1497 C.ar      1 <0>        -0.0886
     17 C13        -3.8937   -3.6949    4.9346 C.ar      1 <0>        -0.0871
     18 C14        -4.8805   -3.6010    5.8754 C.ar      1 <0>        -0.1319
     19 C15        -4.6746   -2.8802    7.0434 C.ar      1 <0>        -0.0990
     20 C16        -3.4697   -2.2549    7.2803 C.ar      1 <0>        -0.1212
     21 C17        -0.8321   -5.0344    3.2027 C.2       1 <0>         0.5163
     22 O1          0.2410   -5.4658    2.8375 O.2       1 <0>        -0.5104
     23 N3         -1.7363   -5.8626    3.7621 N.am      1 <0>        -0.7217
     24 C18        -1.4229   -7.2839    3.9292 C.3       1 <0>         0.1645
     25 C19        -2.5915   -7.9836    4.5740 C.ar      1 <0>        -0.1215
     26 C20        -2.6700   -8.0707    5.9514 C.ar      1 <0>        -0.0667
     27 C21        -3.7415   -8.7117    6.5438 C.ar      1 <0>        -0.1535
     28 C22        -4.7366   -9.2668    5.7572 C.ar      1 <0>         0.1086
     29 C23        -4.6569   -9.1790    4.3777 C.ar      1 <0>        -0.1551
     30 C24        -3.5871   -8.5329    3.7877 C.ar      1 <0>        -0.0708
     31 F1         -5.7842   -9.8941    6.3353 F         1 <0>        -0.1370
     32 C25         1.2128   -3.0021    2.9412 C.2       1 <0>         0.5211
     33 O2          1.3663   -3.5912    3.9902 O.2       1 <0>        -0.4802
     34 C26         2.3987   -2.3932    2.2384 C.3       1 <0>         0.1161
     35 N4          3.6124   -2.6483    3.0182 N.pl3     1 <0>        -0.1232
     36 N5          4.0774   -1.8824    3.9444 N.2       1 <0>        -0.2849
     37 C27         5.1778   -2.4400    4.4142 C.2       1 <0>         0.2490
     38 N6          5.3539   -3.5791    3.7267 N.2       1 <0>        -0.2539
     39 N7          4.3778   -3.6751    2.8891 N.2       1 <0>        -0.0298
     40 C28         6.0472   -1.9122    5.4879 C.2       1 <0>         0.0486
     41 C29         7.1807   -2.4976    5.9560 C.2       1 <0>        -0.1328
     42 C30         7.6835   -1.6564    6.9690 C.2       1 <0>        -0.2136
     43 C31         6.8404   -0.6102    7.0676 C.2       1 <0>         0.0137
     44 O3          5.8561   -0.7652    6.1673 O.3       1 <0>        -0.1595
     45 C32         6.9818    0.5451    8.0248 C.3       1 <0>        -0.0772
     46 C33         0.0284   -4.2243   -0.1099 C.3       1 <0>        -0.1274
     47 H3          0.1236    1.9955    0.2622 H         1 <0>         0.0738
     48 H4         -1.4651    1.8100   -0.5189 H         1 <0>         0.0706
     49 H5         -1.3268    1.7061    1.2527 H         1 <0>         0.0680
     50 H6         -0.7441   -0.0286   -1.9313 H         1 <0>         0.1292
     51 H7         -0.3763   -2.4553   -2.1097 H         1 <0>         0.1319
     52 H8         -0.4224   -0.2797    2.3132 H         1 <0>         0.1283
     53 H9          0.4214   -1.9367    4.7973 H         1 <0>         0.1660
     54 H10        -4.0613   -4.2569    4.0277 H         1 <0>         0.1164
     55 H11        -5.8282   -4.0912    5.7084 H         1 <0>         0.1244
     56 H12        -5.4643   -2.8145    7.7772 H         1 <0>         0.1271
     57 H13        -3.3197   -1.6953    8.1918 H         1 <0>         0.1216
     58 H14        -2.5945   -5.5176    4.0542 H         1 <0>         0.4011
     59 H15        -1.2255   -7.7295    2.9542 H         1 <0>         0.0804
     60 H16        -0.5418   -7.3898    4.5621 H         1 <0>         0.0789
     61 H17        -1.8935   -7.6380    6.5648 H         1 <0>         0.1334
     62 H18        -3.8024   -8.7800    7.6200 H         1 <0>         0.1379
     63 H19        -5.4323   -9.6118    3.7631 H         1 <0>         0.1387
     64 H20        -3.5270   -8.4603    2.7118 H         1 <0>         0.1354
     65 H21         2.5024   -2.8383    1.2488 H         1 <0>         0.1498
     66 H22         2.2496   -1.3180    2.1394 H         1 <0>         0.1448
     67 H23         7.6128   -3.4276    5.6172 H         1 <0>         0.1627
     68 H24         8.5755   -1.8199    7.5556 H         1 <0>         0.1588
     69 H25         7.5688    1.3352    7.5565 H         1 <0>         0.0866
     70 H26         5.9939    0.9289    8.2797 H         1 <0>         0.0788
     71 H27         7.4850    0.2070    8.9307 H         1 <0>         0.0942
     72 H28         1.0862   -4.4198   -0.2861 H         1 <0>         0.0753
     73 H29        -0.2811   -4.7083    0.8164 H         1 <0>         0.0777
     74 H30        -0.5573   -4.6197   -0.9398 H         1 <0>         0.0708
@<TRIPOS>BOND
     1    1    2 1
     2    1   47 1
     3    1   48 1
     4    1   49 1
     5    2    7 ar
     6    2    3 ar
     7    3    4 ar
     8    3   50 1
     9    4    5 ar
    10    4   51 1
    11    5    6 ar
    12    5   46 1
    13    6    7 ar
    14    6    8 1
    15    7   52 1
    16    8    9 1
    17    8   32 am
    18    9   10 1
    19    9   11 1
    20    9   21 1
    21   11   16 1
    22   11   12 2
    23   12   13 1
    24   12   53 1
    25   13   14 1
    26   13   15 1
    27   15   20 ar
    28   15   16 ar
    29   16   17 ar
    30   17   18 ar
    31   17   54 1
    32   18   19 ar
    33   18   55 1
    34   19   20 ar
    35   19   56 1
    36   20   57 1
    37   21   22 2
    38   21   23 am
    39   23   24 1
    40   23   58 1
    41   24   25 1
    42   24   59 1
    43   24   60 1
    44   25   30 ar
    45   25   26 ar
    46   26   27 ar
    47   26   61 1
    48   27   28 ar
    49   27   62 1
    50   28   29 ar
    51   28   31 1
    52   29   30 ar
    53   29   63 1
    54   30   64 1
    55   32   33 2
    56   32   34 1
    57   34   35 1
    58   34   65 1
    59   34   66 1
    60   35   39 1
    61   35   36 1
    62   36   37 2
    63   37   38 1
    64   37   40 1
    65   38   39 2
    66   40   44 1
    67   40   41 2
    68   41   42 1
    69   41   67 1
    70   42   43 2
    71   42   68 1
    72   43   44 1
    73   43   45 1
    74   45   69 1
    75   45   70 1
    76   45   71 1
    77   46   72 1
    78   46   73 1
    79   46   74 1
