@<TRIPOS>MOLECULE
ZINC03321013
   56    59     0     0     0
SMALL
USER_CHARGES
N-(3-cyano-4,5,6,7-tetrahydrobenzothiophen-2-yl)-2-dibenzylamino-acetamide
@<TRIPOS>ATOM
      1 C1         -4.6454    7.6512   -9.3150 C.ar      1 <0>        -0.0836
      2 C2         -4.0392    6.5961   -8.6591 C.ar      1 <0>        -0.1142
      3 C3         -3.8685    6.6410   -7.2881 C.ar      1 <0>        -0.0888
      4 C4         -4.3046    7.7406   -6.5729 C.ar      1 <0>        -0.1592
      5 C5         -4.9160    8.7932   -7.2281 C.ar      1 <0>        -0.0959
      6 C6         -5.0819    8.7506   -8.5998 C.ar      1 <0>        -0.1154
      7 C7         -4.1189    7.7893   -5.0782 C.3       1 <0>         0.0391
      8 C8         -2.6414    9.7073   -5.0478 C.3       1 <0>         0.0443
      9 C9         -1.1832   10.0759   -5.1426 C.ar      1 <0>        -0.1662
     10 C10        -0.5212   10.5682   -4.0334 C.ar      1 <0>        -0.0993
     11 C11         0.8176   10.9017   -4.1191 C.ar      1 <0>        -0.1130
     12 C12         1.4918   10.7524   -5.3167 C.ar      1 <0>        -0.0823
     13 C13         0.8283   10.2655   -6.4273 C.ar      1 <0>        -0.1110
     14 C14        -0.5091    9.9270   -6.3402 C.ar      1 <0>        -0.0918
     15 C15        -2.4076    7.9723   -3.3751 C.3       1 <0>        -0.0254
     16 C16        -2.3084    6.4799   -3.1905 C.2       1 <0>         0.4991
     17 O1         -2.5159    5.7378   -4.1271 O.2       1 <0>        -0.4902
     18 N1         -1.9891    5.9699   -1.9845 N.am      1 <0>        -0.5953
     19 C17        -1.8977    4.5954   -1.8144 C.2       1 <0>         0.0479
     20 C18        -1.5850    3.8886   -0.6629 C.2       1 <0>        -0.0882
     21 C19        -1.5557    2.4391   -0.7510 C.2       1 <0>        -0.0662
     22 C20        -1.8416    1.9311   -1.9703 C.2       1 <0>        -0.1808
     23 S1         -2.1467    3.3464   -2.9892 S.3       1 <0>         0.2589
     24 C21        -1.8864    0.4854   -2.3585 C.3       1 <0>        -0.0421
     25 C22        -1.1928   -0.3321   -1.2591 C.3       1 <0>        -0.1172
     26 C23        -1.7288    0.1142    0.1042 C.3       1 <0>        -0.1220
     27 C24        -1.2311    1.5244    0.4235 C.3       1 <0>        -0.0647
     28 C25        -1.3018    4.5631    0.5681 C.1       1 <0>         0.2537
     29 N2         -1.0772    5.0983    1.5447 N.1       1 <0>        -0.4014
     30 H1         -4.7784    7.6163  -10.3862 H         1 <0>         0.1349
     31 H2         -3.6985    5.7370   -9.2179 H         1 <0>         0.1356
     32 H3         -3.3949    5.8167   -6.7756 H         1 <0>         0.1372
     33 H4         -5.2606    9.6504   -6.6688 H         1 <0>         0.1308
     34 H5         -5.5559    9.5748   -9.1122 H         1 <0>         0.1353
     35 H6         -4.2535    6.7907   -4.6626 H         1 <0>         0.1449
     36 H7         -4.8540    8.4662   -4.6426 H         1 <0>         0.1379
     37 H8         -3.1366    9.9382   -5.9909 H         1 <0>         0.1433
     38 H9         -3.1083   10.2758   -4.2435 H         1 <0>         0.1417
     39 H10        -1.0490   10.6886   -3.0989 H         1 <0>         0.1320
     40 H11         1.3358   11.2825   -3.2515 H         1 <0>         0.1368
     41 H12         2.5368   11.0166   -5.3846 H         1 <0>         0.1366
     42 H13         1.3549   10.1492   -7.3630 H         1 <0>         0.1369
     43 H14        -1.0275    9.5466   -7.2080 H         1 <0>         0.1314
     44 H15        -3.1734    8.3706   -2.7096 H         1 <0>         0.1709
     45 H16        -1.4475    8.4320   -3.1406 H         1 <0>         0.1641
     46 H17        -1.8231    6.5634   -1.2354 H         1 <0>         0.4285
     47 H18        -1.3659    0.3432   -3.3056 H         1 <0>         0.0876
     48 H19        -2.9232    0.1636   -2.4567 H         1 <0>         0.0905
     49 H20        -1.4020   -1.3919   -1.4048 H         1 <0>         0.0804
     50 H21        -0.1168   -0.1630   -1.3018 H         1 <0>         0.0713
     51 H22        -2.8185    0.1137    0.0827 H         1 <0>         0.0697
     52 H23        -1.3827   -0.5765    0.8732 H         1 <0>         0.0769
     53 H24        -0.1529    1.5016    0.5819 H         1 <0>         0.0841
     54 H25        -1.7247    1.8944    1.3221 H         1 <0>         0.0779
     55 N3         -2.7476    8.2566   -4.7851 N.4       1 <0>        -0.3805
     56 H26        -2.0882    7.7582   -5.3942 H         1 <0>         0.4346
@<TRIPOS>BOND
     1    1    6 ar
     2    1    2 ar
     3    1   30 1
     4    2    3 ar
     5    2   31 1
     6    3    4 ar
     7    3   32 1
     8    4    5 ar
     9    4    7 1
    10    5    6 ar
    11    5   33 1
    12    6   34 1
    13    7   35 1
    14    7   36 1
    15    7   55 1
    16    8    9 1
    17    8   37 1
    18    8   38 1
    19    8   55 1
    20    9   14 ar
    21    9   10 ar
    22   10   11 ar
    23   10   39 1
    24   11   12 ar
    25   11   40 1
    26   12   13 ar
    27   12   41 1
    28   13   14 ar
    29   13   42 1
    30   14   43 1
    31   15   16 1
    32   15   44 1
    33   15   45 1
    34   15   55 1
    35   16   17 2
    36   16   18 am
    37   18   19 1
    38   18   46 1
    39   19   23 1
    40   19   20 2
    41   20   21 1
    42   20   28 1
    43   21   27 1
    44   21   22 2
    45   22   23 1
    46   22   24 1
    47   24   25 1
    48   24   47 1
    49   24   48 1
    50   25   26 1
    51   25   49 1
    52   25   50 1
    53   26   27 1
    54   26   51 1
    55   26   52 1
    56   27   53 1
    57   27   54 1
    58   28   29 3
    59   55   56 1
