@<TRIPOS>MOLECULE
ZINC20150129
   76    78     0     0     0
SMALL
USER_CHARGES

@<TRIPOS>ATOM
      1 C1         -4.1697    1.9424    2.0531 C.3       1 <0>        -0.1854
      2 C2         -3.6833    0.5090    2.2759 C.3       1 <0>        -0.0183
      3 N1         -2.6981    0.1602    1.2437 N.4       1 <0>        -0.3849
      4 C3         -1.5057    1.0039    1.3998 C.3       1 <0>        -0.0141
      5 C4         -0.5369    0.7363    0.2462 C.3       1 <0>        -0.1894
      6 C5         -2.3203   -1.2524    1.3847 C.3       1 <0>        -0.0096
      7 C6         -3.5421   -2.1355    1.1235 C.3       1 <0>        -0.1808
      8 C7         -3.1209   -3.6063    1.1389 C.3       1 <0>         0.1464
      9 N2         -4.2908   -4.4520    0.8888 N.am      1 <0>        -0.6156
     10 C8         -5.1978   -4.9948    1.9070 C.3       1 <0>         0.2629
     11 H1         -4.6486   -5.6405    2.5923 H         1 <0>         0.0728
     12 C9         -6.2384   -5.7958    1.1599 C.2       1 <0>        -0.4907
     13 C10        -5.9329   -5.7034   -0.1546 C.2       1 <0>         0.2482
     14 C11        -4.7274   -4.8637   -0.3153 C.2       1 <0>         0.5119
     15 O1         -4.2059   -4.5884   -1.3776 O.2       1 <0>        -0.5318
     16 O2         -6.6244   -6.2833   -1.1629 O.3       1 <0>        -0.6504
     17 C12        -7.3634   -6.5320    1.7469 C.2       1 <0>         0.5431
     18 O3         -8.3840   -5.9426    2.0511 O.2       1 <0>        -0.4783
     19 C13        -7.2578   -7.9859    1.9683 C.2       1 <0>        -0.2429
     20 C14        -8.2845   -8.8425    2.4245 C.2       1 <0>        -0.0004
     21 C15        -7.7580  -10.0995    2.4853 C.2       1 <0>        -0.0758
     22 N3         -6.4416  -10.0378    2.0804 N.pl3     1 <0>        -0.5238
     23 H2         -5.8337  -10.7920    2.0291 H         1 <0>         0.4214
     24 C16        -6.1360   -8.7699    1.7628 C.2       1 <0>         0.1488
     25 C17        -4.7979   -8.2824    1.2698 C.3       1 <0>        -0.1127
     26 C18        -8.4702  -11.3093    2.9094 C.2       1 <0>         0.5367
     27 O4         -9.6363  -11.2413    3.2475 O.2       1 <0>        -0.4975
     28 O5         -7.8319  -12.4973    2.9246 O.3       1 <0>        -0.3629
     29 C19        -8.5867  -13.6340    3.3489 C.3       1 <0>         0.0376
     30 C20        -9.6941   -8.4432    2.7776 C.3       1 <0>        -0.0988
     31 C21        -5.8543   -3.8718    2.6678 C.ar      1 <0>        -0.0701
     32 C22        -6.4138   -2.8084    1.9845 C.ar      1 <0>        -0.0892
     33 C23        -7.0160   -1.7782    2.6824 C.ar      1 <0>        -0.1297
     34 C24        -7.0591   -1.8117    4.0636 C.ar      1 <0>        -0.0829
     35 C25        -6.5004   -2.8756    4.7470 C.ar      1 <0>        -0.1134
     36 C26        -5.9020   -3.9078    4.0489 C.ar      1 <0>        -0.1086
     37 C27        -7.7147   -0.6882    4.8245 C.3       1 <0>        -0.0550
     38 C28        -8.8736   -1.2430    5.6552 C.3       1 <0>        -0.1472
     39 C29        -6.6892   -0.0343    5.7527 C.3       1 <0>        -0.1401
     40 H3         -4.9008    2.2013    2.8190 H         1 <0>         0.1048
     41 H4         -3.3233    2.6267    2.1127 H         1 <0>         0.0772
     42 H5         -4.6315    2.0206    1.0689 H         1 <0>         0.0798
     43 H6         -3.2215    0.4309    3.2602 H         1 <0>         0.1278
     44 H7         -4.5297   -0.1752    2.2163 H         1 <0>         0.1355
     45 H8         -1.7996    2.0535    1.3915 H         1 <0>         0.1296
     46 H9         -1.0171    0.7709    2.3460 H         1 <0>         0.1269
     47 H10        -1.0006    1.0345   -0.6941 H         1 <0>         0.0803
     48 H11         0.3771    1.3102    0.3987 H         1 <0>         0.1029
     49 H12        -0.2972   -0.3265    0.2121 H         1 <0>         0.0816
     50 H13        -1.5377   -1.4928    0.6651 H         1 <0>         0.1324
     51 H14        -1.9523   -1.4309    2.3950 H         1 <0>         0.1295
     52 H15        -4.2878   -1.9630    1.8996 H         1 <0>         0.1007
     53 H16        -3.9670   -1.8894    0.1503 H         1 <0>         0.0894
     54 H17        -2.3753   -3.7789    0.3628 H         1 <0>         0.0859
     55 H18        -2.6961   -3.8524    2.1121 H         1 <0>         0.0835
     56 H19        -4.1599   -8.0488    2.1221 H         1 <0>         0.0750
     57 H20        -4.3281   -9.0591    0.6664 H         1 <0>         0.0645
     58 H21        -4.9380   -7.3869    0.6645 H         1 <0>         0.1195
     59 H22        -7.9562  -14.5224    3.3143 H         1 <0>         0.1008
     60 H23        -8.9377  -13.4770    4.3688 H         1 <0>         0.0608
     61 H24        -9.4422  -13.7696    2.6871 H         1 <0>         0.0615
     62 H25       -10.3249   -8.5153    1.8916 H         1 <0>         0.0716
     63 H26       -10.0771   -9.1084    3.5515 H         1 <0>         0.0750
     64 H27        -9.6998   -7.4170    3.1451 H         1 <0>         0.0827
     65 H28        -6.3801   -2.7822    0.9053 H         1 <0>         0.1142
     66 H29        -7.4525   -0.9471    2.1485 H         1 <0>         0.1135
     67 H30        -6.5338   -2.9016    5.8262 H         1 <0>         0.1165
     68 H31        -5.4688   -4.7408    4.5826 H         1 <0>         0.1185
     69 H32        -8.0939    0.0537    4.1218 H         1 <0>         0.0730
     70 H33        -9.3479   -0.4304    6.2055 H         1 <0>         0.0559
     71 H34        -9.6043   -1.7089    4.9940 H         1 <0>         0.0596
     72 H35        -8.4944   -1.9850    6.3579 H         1 <0>         0.0573
     73 H36        -5.8636    0.3610    5.1609 H         1 <0>         0.0466
     74 H37        -7.1634    0.7784    6.3030 H         1 <0>         0.0564
     75 H38        -6.3100   -0.7762    6.4554 H         1 <0>         0.0574
     76 H39        -3.0998    0.3114    0.3305 H         1 <0>         0.4228
@<TRIPOS>BOND
     1    1    2 1
     2    1   40 1
     3    1   41 1
     4    1   42 1
     5    2    3 1
     6    2   43 1
     7    2   44 1
     8    3    4 1
     9    3    6 1
    10    3   76 1
    11    4    5 1
    12    4   45 1
    13    4   46 1
    14    5   47 1
    15    5   48 1
    16    5   49 1
    17    6    7 1
    18    6   50 1
    19    6   51 1
    20    7    8 1
    21    7   52 1
    22    7   53 1
    23    8    9 1
    24    8   54 1
    25    8   55 1
    26    9   14 am
    27    9   10 1
    28   10   11 1
    29   10   12 1
    30   10   31 1
    31   12   13 2
    32   12   17 1
    33   13   14 1
    34   13   16 1
    35   14   15 2
    36   17   18 2
    37   17   19 1
    38   19   24 2
    39   19   20 1
    40   20   21 2
    41   20   30 1
    42   21   22 1
    43   21   26 1
    44   22   23 1
    45   22   24 1
    46   24   25 1
    47   25   56 1
    48   25   57 1
    49   25   58 1
    50   26   27 2
    51   26   28 1
    52   28   29 1
    53   29   59 1
    54   29   60 1
    55   29   61 1
    56   30   62 1
    57   30   63 1
    58   30   64 1
    59   31   36 ar
    60   31   32 ar
    61   32   33 ar
    62   32   65 1
    63   33   34 ar
    64   33   66 1
    65   34   35 ar
    66   34   37 1
    67   35   36 ar
    68   35   67 1
    69   36   68 1
    70   37   38 1
    71   37   39 1
    72   37   69 1
    73   38   70 1
    74   38   71 1
    75   38   72 1
    76   39   73 1
    77   39   74 1
    78   39   75 1
