@<TRIPOS>MOLECULE
ZINC04100182
   47    50     0     0     0
SMALL
USER_CHARGES

@<TRIPOS>ATOM
      1 C1         -0.0166    1.3601   -0.0160 C.ar      1 <0>        -0.0945
      2 C2          1.1698    2.0887   -0.0229 C.ar      1 <0>        -0.1039
      3 C3          2.3791    1.4625   -0.0294 C.ar      1 <0>        -0.0727
      4 C4          2.4365    0.0581   -0.0290 C.ar      1 <0>         0.1187
      5 C5          1.2269   -0.6772   -0.0220 C.ar      1 <0>        -0.0624
      6 C6          0.0019   -0.0040   -0.0155 C.ar      1 <0>        -0.1242
      7 C7          1.2998   -2.1411   -0.0216 C.ar      1 <0>        -0.0533
      8 C8          2.5745   -2.7157   -0.0284 C.ar      1 <0>        -0.0914
      9 C9          3.6912   -1.8958   -0.0350 C.ar      1 <0>         0.1230
     10 N1          3.6078   -0.5867   -0.0348 N.ar      1 <0>        -0.4367
     11 C10         0.0893   -2.9666   -0.0140 C.2       1 <0>         0.2167
     12 N2         -1.0861   -2.4031    0.0993 N.2       1 <0>        -0.3290
     13 N3         -2.1519   -3.1299    0.1060 N.pl3     1 <0>        -0.4262
     14 C11        -3.3396   -2.5605    0.2205 C.cat     1 <0>         0.4736
     15 N4         -3.4386   -1.1983    0.3321 N.pl3     1 <0>        -0.7438
     16 S1         -4.7953   -3.5533    0.2296 S.3       1 <0>         0.1529
     17 C12        -6.1442   -2.3528    0.4027 C.3       1 <0>        -0.1688
     18 H1         -5.9830   -1.7195    1.2751 H         1 <0>         0.1784
     19 C13        -7.5039   -3.0742    0.4994 C.3       1 <0>        -0.1223
     20 C14        -8.2606   -2.5683   -0.7093 C.2       1 <0>         0.5264
     21 O1         -9.3889   -2.8884   -1.0160 O.2       1 <0>        -0.4180
     22 N5         -7.4867   -1.7107   -1.3862 N.am      1 <0>        -0.5133
     23 C15        -6.2728   -1.5122   -0.8489 C.2       1 <0>         0.5345
     24 O2         -5.4159   -0.7790   -1.2935 O.2       1 <0>        -0.4486
     25 C16        -7.9100   -1.0702   -2.5597 C.ar      1 <0>         0.1111
     26 C17        -8.5502    0.1593   -2.4887 C.ar      1 <0>        -0.0744
     27 C18        -8.9659    0.7885   -3.6471 C.ar      1 <0>        -0.0238
     28 C19        -8.7448    0.1934   -4.8770 C.ar      1 <0>        -0.0704
     29 C20        -8.1075   -1.0310   -4.9508 C.ar      1 <0>        -0.0846
     30 C21        -7.6844   -1.6623   -3.7959 C.ar      1 <0>        -0.0144
     31 Cl1        -6.8783   -3.1969   -3.8901 Cl        1 <0>        -0.0438
     32 Cl2        -9.7666    2.3263   -3.5593 Cl        1 <0>        -0.0316
     33 H2         -0.9627    1.8809   -0.0064 H         1 <0>         0.1313
     34 H3          1.1304    3.1679   -0.0236 H         1 <0>         0.1391
     35 H4          3.2901    2.0426   -0.0351 H         1 <0>         0.1458
     36 H5         -0.9238   -0.5602   -0.0098 H         1 <0>         0.1417
     37 H6          2.6876   -3.7898   -0.0281 H         1 <0>         0.1561
     38 H7          4.6698   -2.3527   -0.0402 H         1 <0>         0.1744
     39 H8          0.1673   -4.0402   -0.1020 H         1 <0>         0.1555
     40 H9         -2.6372   -0.6518    0.3271 H         1 <0>         0.4359
     41 H10        -7.3698   -4.1545    0.4435 H         1 <0>         0.1456
     42 H11        -8.0203   -2.7978    1.4186 H         1 <0>         0.1645
     43 H12        -8.7236    0.6237   -1.5292 H         1 <0>         0.1505
     44 H13        -9.0710    0.6865   -5.7808 H         1 <0>         0.1588
     45 H14        -7.9363   -1.4930   -5.9119 H         1 <0>         0.1599
     46 H15        -4.3100   -0.7806    0.4161 H         1 <0>         0.4364
     47 H16        -2.0818   -4.0942    0.0270 H         1 <0>         0.4213
@<TRIPOS>BOND
     1    1    6 ar
     2    1    2 ar
     3    1   33 1
     4    2    3 ar
     5    2   34 1
     6    3    4 ar
     7    3   35 1
     8    4   10 ar
     9    4    5 ar
    10    5    6 ar
    11    5    7 ar
    12    6   36 1
    13    7    8 ar
    14    7   11 1
    15    8    9 ar
    16    8   37 1
    17    9   10 ar
    18    9   38 1
    19   11   12 2
    20   11   39 1
    21   12   13 1
    22   13   14 2
    23   13   47 1
    24   14   15 1
    25   14   16 1
    26   15   40 1
    27   15   46 1
    28   16   17 1
    29   17   18 1
    30   17   23 1
    31   17   19 1
    32   19   20 1
    33   19   41 1
    34   19   42 1
    35   20   21 2
    36   20   22 am
    37   22   23 am
    38   22   25 1
    39   23   24 2
    40   25   30 ar
    41   25   26 ar
    42   26   27 ar
    43   26   43 1
    44   27   28 ar
    45   27   32 1
    46   28   29 ar
    47   28   44 1
    48   29   30 ar
    49   29   45 1
    50   30   31 1
