@<TRIPOS>MOLECULE
ZINC02697139
   32    33     0     0     0
SMALL
USER_CHARGES
N-(4-bromophenyl)piperidine-1-sulfonamide
@<TRIPOS>ATOM
      1 C1         -0.6942   -1.0931   -1.0308 C.ar      1 <0>        -0.1487
      2 C2         -0.4611   -2.1145   -1.9307 C.ar      1 <0>        -0.0647
      3 C3          0.6975   -2.1210   -2.6869 C.ar      1 <0>        -0.1010
      4 C4          1.6231   -1.1019   -2.5483 C.ar      1 <0>        -0.0710
      5 C5          1.3925   -0.0747   -1.6545 C.ar      1 <0>        -0.1246
      6 C6          0.2302   -0.0654   -0.8939 C.ar      1 <0>         0.1647
      7 N1         -0.0058    0.9725    0.0111 N.pl3     1 <0>        -1.0691
      8 S1         -1.4899    1.7055    0.0617 S.o2      1 <0>         2.7816
      9 O1         -2.4504    0.6682    0.2059 O.2       1 <0>        -0.9648
     10 O2         -1.3819    2.7779    0.9877 O.2       1 <0>        -0.9654
     11 N2         -1.7499    2.3879   -1.4246 N.pl3     1 <0>        -0.9987
     12 C7         -1.2285    3.7258   -1.7356 C.3       1 <0>         0.1207
     13 C8         -0.3991    3.6391   -3.0258 C.3       1 <0>        -0.1348
     14 C9         -1.2555    3.0251   -4.1357 C.3       1 <0>        -0.1175
     15 C10        -1.6727    1.6081   -3.7356 C.3       1 <0>        -0.1349
     16 C11        -2.5117    1.6694   -2.4553 C.3       1 <0>         0.1174
     17 Br1         1.0164   -3.5251   -3.9127 Br        1 <0>        -0.0448
     18 H1         -1.5967   -1.0908   -0.4376 H         1 <0>         0.1619
     19 H2         -1.1820   -2.9110   -2.0412 H         1 <0>         0.1409
     20 H3          2.5266   -1.1097   -3.1399 H         1 <0>         0.1384
     21 H4          2.1150    0.7209   -1.5472 H         1 <0>         0.1369
     22 H5          0.6984    1.2611    0.6125 H         1 <0>         0.4269
     23 H6         -2.0587    4.4177   -1.8774 H         1 <0>         0.0777
     24 H7         -0.5977    4.0716   -0.9167 H         1 <0>         0.0867
     25 H8          0.4783    3.0151   -2.8560 H         1 <0>         0.0667
     26 H9         -0.0824    4.6393   -3.3218 H         1 <0>         0.0762
     27 H10        -0.6790    2.9867   -5.0599 H         1 <0>         0.0659
     28 H11        -2.1451    3.6363   -4.2877 H         1 <0>         0.0654
     29 H12        -0.7833    1.0032   -3.5590 H         1 <0>         0.0673
     30 H13        -2.2630    1.1629   -4.5364 H         1 <0>         0.0765
     31 H14        -2.7279    0.6580   -2.1113 H         1 <0>         0.0915
     32 H15        -3.4456    2.1957   -2.6528 H         1 <0>         0.0763
@<TRIPOS>BOND
     1    1    6 ar
     2    1    2 ar
     3    1   18 1
     4    2    3 ar
     5    2   19 1
     6    3    4 ar
     7    3   17 1
     8    4    5 ar
     9    4   20 1
    10    5    6 ar
    11    5   21 1
    12    6    7 1
    13    7    8 1
    14    7   22 1
    15    8    9 2
    16    8   10 2
    17    8   11 1
    18   11   16 1
    19   11   12 1
    20   12   13 1
    21   12   23 1
    22   12   24 1
    23   13   14 1
    24   13   25 1
    25   13   26 1
    26   14   15 1
    27   14   27 1
    28   14   28 1
    29   15   16 1
    30   15   29 1
    31   15   30 1
    32   16   31 1
    33   16   32 1
