@<TRIPOS>MOLECULE
ZINC01372554
   69    73     0     0     0
SMALL
USER_CHARGES

@<TRIPOS>ATOM
      1 C1         -1.2483    0.9959    0.1784 C.3       1 <0>        -0.1270
      2 C2         -0.2663   -0.1416    0.0666 C.ar      1 <0>        -0.0468
      3 C3         -0.1325   -0.8246   -1.1280 C.ar      1 <0>        -0.1186
      4 C4          0.7681   -1.8679   -1.2305 C.ar      1 <0>        -0.1054
      5 C5          1.5357   -2.2283   -0.1385 C.ar      1 <0>        -0.1281
      6 C6          1.4027   -1.5450    1.0555 C.ar      1 <0>        -0.1028
      7 C7          0.5048   -0.4986    1.1568 C.ar      1 <0>        -0.0876
      8 C8          0.3635    0.2499    2.4571 C.3       1 <0>         0.1718
      9 H1         -0.4031    1.0178    2.3529 H         1 <0>         0.1384
     10 C9          1.6780    0.8970    2.8096 C.2       1 <0>         0.5131
     11 O1          2.2844    0.5394    3.7972 O.2       1 <0>        -0.5275
     12 N1          2.1798    1.8732    2.0274 N.am      1 <0>        -0.7168
     13 C10         3.5075    2.4258    2.3067 C.3       1 <0>         0.1644
     14 C11         3.8302    3.4941    1.2939 C.ar      1 <0>        -0.1134
     15 C12         4.4666    3.1580    0.1137 C.ar      1 <0>        -0.0987
     16 C13         4.7626    4.1379   -0.8153 C.ar      1 <0>        -0.1211
     17 C14         4.4217    5.4539   -0.5643 C.ar      1 <0>        -0.1094
     18 C15         3.7845    5.7898    0.6155 C.ar      1 <0>        -0.1209
     19 C16         3.4847    4.8093    1.5426 C.ar      1 <0>        -0.0997
     20 N2         -0.0215   -0.6835    3.5186 N.am      1 <0>        -0.5314
     21 C17         0.7250   -1.8378    3.7344 C.ar      1 <0>         0.1573
     22 C18         1.8379   -1.8045    4.5638 C.ar      1 <0>        -0.1036
     23 C19         2.5770   -2.9505    4.7766 C.ar      1 <0>        -0.0898
     24 C20         2.2172   -4.1425    4.1668 C.ar      1 <0>        -0.1164
     25 C21         1.1171   -4.1974    3.3407 C.ar      1 <0>        -0.0792
     26 C22         0.3530   -3.0455    3.1186 C.ar      1 <0>        -0.1590
     27 C23        -0.8243   -3.0969    2.2439 C.2       1 <0>         0.3817
     28 O2         -1.4460   -2.0835    2.0034 O.2       1 <0>        -0.4263
     29 C24        -1.2609   -4.4088    1.6445 C.3       1 <0>        -0.2004
     30 C25        -1.0986   -0.4243    4.2860 C.2       1 <0>         0.5238
     31 O3         -1.7492    0.5818    4.0979 O.2       1 <0>        -0.5058
     32 C26        -1.4946   -1.3845    5.3779 C.3       1 <0>         0.1246
     33 N3         -2.6881   -0.8807    6.0620 N.pl3     1 <0>        -0.3836
     34 C27        -2.7196   -0.0473    7.1548 C.ar      1 <0>         0.0972
     35 C28        -1.7420    0.5620    7.9341 C.ar      1 <0>        -0.1228
     36 C29        -2.1077    1.3569    8.9839 C.ar      1 <0>        -0.0640
     37 C30        -3.4490    1.5624    9.2810 C.ar      1 <0>        -0.1350
     38 C31        -4.4270    0.9763    8.5321 C.ar      1 <0>        -0.0329
     39 C32        -4.0787    0.1570    7.4499 C.ar      1 <0>        -0.0158
     40 N4         -4.8019   -0.5401    6.5510 N.2       1 <0>        -0.2136
     41 N5         -4.0237   -1.1490    5.7273 N.2       1 <0>         0.0062
     42 H2         -0.7334    1.9396   -0.0019 H         1 <0>         0.0704
     43 H3         -2.0394    0.8669   -0.5603 H         1 <0>         0.0724
     44 H4         -1.6826    1.0042    1.1781 H         1 <0>         0.0757
     45 H5         -0.7321   -0.5431   -1.9810 H         1 <0>         0.1239
     46 H6          0.8721   -2.4019   -2.1635 H         1 <0>         0.1227
     47 H7          2.2390   -3.0441   -0.2183 H         1 <0>         0.1213
     48 H8          2.0020   -1.8267    1.9086 H         1 <0>         0.1226
     49 H9          1.6619    2.2098    1.2796 H         1 <0>         0.4030
     50 H10         3.5179    2.8585    3.3071 H         1 <0>         0.0789
     51 H11         4.2517    1.6316    2.2466 H         1 <0>         0.0773
     52 H12         4.7329    2.1299   -0.0824 H         1 <0>         0.1230
     53 H13         5.2604    3.8754   -1.7371 H         1 <0>         0.1248
     54 H14         4.6536    6.2195   -1.2898 H         1 <0>         0.1244
     55 H15         3.5185    6.8180    0.8118 H         1 <0>         0.1253
     56 H16         2.9835    5.0712    2.4627 H         1 <0>         0.1239
     57 H17         2.1260   -0.8803    5.0428 H         1 <0>         0.1614
     58 H18         3.4420   -2.9184    5.4225 H         1 <0>         0.1335
     59 H19         2.8033   -5.0328    4.3405 H         1 <0>         0.1335
     60 H20         0.8417   -5.1286    2.8679 H         1 <0>         0.1395
     61 H21        -0.6428   -5.2137    2.0422 H         1 <0>         0.0816
     62 H22        -2.3050   -4.5940    1.8967 H         1 <0>         0.0934
     63 H23        -1.1507   -4.3677    0.5608 H         1 <0>         0.0945
     64 H24        -1.7100   -2.3605    4.9429 H         1 <0>         0.1273
     65 H25        -0.6778   -1.4778    6.0935 H         1 <0>         0.1268
     66 H26        -0.6968    0.4070    7.7105 H         1 <0>         0.1280
     67 H27        -1.3472    1.8292    9.5880 H         1 <0>         0.1382
     68 H28        -3.7206    2.1930   10.1146 H         1 <0>         0.1382
     69 H29        -5.4666    1.1430    8.7727 H         1 <0>         0.1396
@<TRIPOS>BOND
     1    1    2 1
     2    1   42 1
     3    1   43 1
     4    1   44 1
     5    2    7 ar
     6    2    3 ar
     7    3    4 ar
     8    3   45 1
     9    4    5 ar
    10    4   46 1
    11    5    6 ar
    12    5   47 1
    13    6    7 ar
    14    6   48 1
    15    7    8 1
    16    8    9 1
    17    8   10 1
    18    8   20 1
    19   10   11 2
    20   10   12 am
    21   12   13 1
    22   12   49 1
    23   13   14 1
    24   13   50 1
    25   13   51 1
    26   14   19 ar
    27   14   15 ar
    28   15   16 ar
    29   15   52 1
    30   16   17 ar
    31   16   53 1
    32   17   18 ar
    33   17   54 1
    34   18   19 ar
    35   18   55 1
    36   19   56 1
    37   20   21 1
    38   20   30 am
    39   21   26 ar
    40   21   22 ar
    41   22   23 ar
    42   22   57 1
    43   23   24 ar
    44   23   58 1
    45   24   25 ar
    46   24   59 1
    47   25   26 ar
    48   25   60 1
    49   26   27 1
    50   27   28 2
    51   27   29 1
    52   29   61 1
    53   29   62 1
    54   29   63 1
    55   30   31 2
    56   30   32 1
    57   32   33 1
    58   32   64 1
    59   32   65 1
    60   33   41 1
    61   33   34 1
    62   34   39 ar
    63   34   35 ar
    64   35   36 ar
    65   35   66 1
    66   36   37 ar
    67   36   67 1
    68   37   38 ar
    69   37   68 1
    70   38   39 ar
    71   38   69 1
    72   39   40 1
    73   40   41 2
