@<TRIPOS>MOLECULE
ZINC02738094
   53    57     0     0     0
SMALL
USER_CHARGES
methyl-[5-[[3-(trifluoromethyl)phenoxy]methyl]-2-furyl]BLAHone
@<TRIPOS>ATOM
      1 C1          3.6013    2.1282   -8.3904 C.3       1 <0>        -0.0406
      2 C2          2.5953    0.8550   -6.5926 C.3       1 <0>        -0.0010
      3 C3          2.8838    0.2531   -5.2145 C.3       1 <0>        -0.0870
      4 C4          3.1331    1.3969   -4.2375 C.2       1 <0>         0.0061
      5 C5          3.4267    2.6326   -4.7049 C.2       1 <0>        -0.3194
      6 S1          3.6274    3.6331   -3.2562 S.3       1 <0>         0.2436
      7 C6          3.3289    2.4408   -2.0641 C.2       1 <0>         0.1512
      8 C7          3.0784    1.2667   -2.7925 C.2       1 <0>        -0.2901
      9 C8          2.7920    0.0346   -2.0220 C.2       1 <0>         0.6014
     10 O1          2.7334   -1.0533   -2.5651 O.2       1 <0>        -0.5191
     11 N1          2.5999    0.1681   -0.6939 N.am      1 <0>        -0.7278
     12 C9          2.4988    1.4552   -0.0148 C.3       1 <0>         0.4766
     13 H1          2.8503    1.3458    1.0112 H         1 <0>         0.1465
     14 N2          3.3068    2.4842   -0.6945 N.pl3     1 <0>        -0.6732
     15 C10         1.0566    1.8921    0.0021 C.2       1 <0>        -0.0622
     16 C11        -0.0126    1.0758    0.0080 C.2       1 <0>        -0.1679
     17 C12        -1.1592    1.9029    0.0172 C.2       1 <0>        -0.1707
     18 C13        -0.7221    3.1750    0.0260 C.2       1 <0>        -0.0089
     19 O2          0.6208    3.1624    0.0131 O.3       1 <0>        -0.1558
     20 C14        -1.5918    4.4056    0.0402 C.3       1 <0>         0.1419
     21 O3         -1.8543    4.7879    1.3919 O.3       1 <0>        -0.3051
     22 C15        -2.6302    5.8872    1.5826 C.ar      1 <0>         0.1276
     23 C16        -3.1287    6.5838    0.4910 C.ar      1 <0>        -0.1786
     24 C17        -3.9171    7.7008    0.6875 C.ar      1 <0>        -0.0764
     25 C18        -4.2092    8.1253    1.9708 C.ar      1 <0>        -0.1053
     26 C19        -3.7141    7.4328    3.0600 C.ar      1 <0>        -0.1400
     27 C20        -2.9298    6.3115    2.8688 C.ar      1 <0>        -0.0984
     28 C21        -4.0348    7.8979    4.4571 C.3       1 <0>         0.5095
     29 F1         -4.8413    9.0394    4.3949 F         1 <0>        -0.1725
     30 F2         -4.7135    6.8841    5.1418 F         1 <0>        -0.1726
     31 F3         -2.8474    8.2020    5.1314 F         1 <0>        -0.1732
     32 C22         3.5478    3.0355   -6.1407 C.3       1 <0>         0.1136
     33 H2          4.3878    2.8434   -8.6314 H         1 <0>         0.1248
     34 H3          3.7492    1.2167   -8.9695 H         1 <0>         0.1257
     35 H4          2.6305    2.5599   -8.6340 H         1 <0>         0.1246
     36 H5          1.6343    1.3690   -6.5687 H         1 <0>         0.1326
     37 H6          2.5596    0.0563   -7.3335 H         1 <0>         0.1379
     38 H7          3.7669   -0.3834   -5.2685 H         1 <0>         0.1104
     39 H8          2.0268   -0.3333   -4.8831 H         1 <0>         0.1296
     40 H9          2.5242   -0.6383   -0.1603 H         1 <0>         0.4205
     41 H10         3.7978    3.1573   -0.1978 H         1 <0>         0.4366
     42 H11         0.0021   -0.0041    0.0020 H         1 <0>         0.1556
     43 H12        -2.1886    1.5759    0.0196 H         1 <0>         0.1591
     44 H13        -1.0795    5.2185   -0.4743 H         1 <0>         0.0839
     45 H14        -2.5330    4.1912   -0.4661 H         1 <0>         0.1014
     46 H15        -2.9003    6.2530   -0.5114 H         1 <0>         0.1369
     47 H16        -4.3053    8.2433   -0.1618 H         1 <0>         0.1420
     48 H17        -4.8255    8.9992    2.1223 H         1 <0>         0.1447
     49 H18        -2.5466    5.7684    3.7200 H         1 <0>         0.1442
     50 H19         2.6664    3.6033   -6.4389 H         1 <0>         0.1411
     51 H20         4.4415    3.6444   -6.2775 H         1 <0>         0.1390
     52 N3          3.6734    1.7994   -6.9503 N.4       1 <0>        -0.3960
     53 H21         4.5808    1.3612   -6.7531 H         1 <0>         0.4333
@<TRIPOS>BOND
     1    1   33 1
     2    1   34 1
     3    1   35 1
     4    1   52 1
     5    2    3 1
     6    2   36 1
     7    2   37 1
     8    2   52 1
     9    3    4 1
    10    3   38 1
    11    3   39 1
    12    4    8 1
    13    4    5 2
    14    5    6 1
    15    5   32 1
    16    6    7 1
    17    7   14 1
    18    7    8 2
    19    8    9 1
    20    9   10 2
    21    9   11 am
    22   11   12 1
    23   11   40 1
    24   12   13 1
    25   12   14 1
    26   12   15 1
    27   14   41 1
    28   15   19 1
    29   15   16 2
    30   16   17 1
    31   16   42 1
    32   17   18 2
    33   17   43 1
    34   18   19 1
    35   18   20 1
    36   20   21 1
    37   20   44 1
    38   20   45 1
    39   21   22 1
    40   22   27 ar
    41   22   23 ar
    42   23   24 ar
    43   23   46 1
    44   24   25 ar
    45   24   47 1
    46   25   26 ar
    47   25   48 1
    48   26   27 ar
    49   26   28 1
    50   27   49 1
    51   28   29 1
    52   28   30 1
    53   28   31 1
    54   32   50 1
    55   32   51 1
    56   32   52 1
    57   52   53 1
