@<TRIPOS>MOLECULE
ZINC03348657
   49    50     0     0     0
SMALL
USER_CHARGES
(2,4,6-trichlorophenyl)carbamoylmethyl 4-chloro-3-(diethylsulfamoyl)benzoate
@<TRIPOS>ATOM
      1 C1         -5.0508   -2.8662    3.2345 C.3       1 <0>        -0.1732
      2 C2         -3.9705   -1.8825    2.7806 C.3       1 <0>         0.1106
      3 N1         -4.6020   -0.6507    2.3010 N.pl3     1 <0>        -0.9950
      4 C3         -5.1473   -0.5879    0.9427 C.3       1 <0>         0.1071
      5 C4         -4.0312   -0.2239   -0.0385 C.3       1 <0>        -0.1806
      6 S1         -4.6996    0.6707    3.2944 S.o2      1 <0>         2.6845
      7 O1         -4.7561    0.1753    4.6250 O.2       1 <0>        -0.9352
      8 O2         -5.7070    1.5132    2.7517 O.2       1 <0>        -0.9331
      9 C5         -3.1777    1.5465    3.1473 C.ar      1 <0>        -0.6820
     10 C6         -2.0849    0.9349    2.5698 C.ar      1 <0>         0.0435
     11 C7         -0.8796    1.6306    2.4536 C.ar      1 <0>        -0.1392
     12 C8         -0.7876    2.9410    2.9285 C.ar      1 <0>         0.0033
     13 C9         -1.8886    3.5433    3.4990 C.ar      1 <0>        -0.1321
     14 C10        -3.0816    2.8479    3.6115 C.ar      1 <0>         0.0851
     15 Cl1        -4.4620    3.6111    4.3367 Cl        1 <0>        -0.0236
     16 C11         0.2945    0.9814    1.8368 C.2       1 <0>         0.5172
     17 O3          0.2131   -0.1601    1.4292 O.2       1 <0>        -0.4930
     18 O4          1.4543    1.6569    1.7210 O.3       1 <0>        -0.3249
     19 C12         2.5648    0.9583    1.0990 C.3       1 <0>         0.0566
     20 C13         3.7682    1.8645    1.0569 C.2       1 <0>         0.5027
     21 O5          3.6969    2.9886    1.5069 O.2       1 <0>        -0.4660
     22 N2          4.9236    1.4259    0.5192 N.am      1 <0>        -0.6672
     23 C14         6.0195    2.2918    0.4123 C.ar      1 <0>         0.1699
     24 C15         5.8320    3.6036   -0.0048 C.ar      1 <0>        -0.0201
     25 C16         6.9148    4.4571   -0.1047 C.ar      1 <0>        -0.0792
     26 C17         8.1859    4.0028    0.1997 C.ar      1 <0>        -0.0248
     27 C18         8.3765    2.6953    0.6108 C.ar      1 <0>        -0.0794
     28 C19         7.2969    1.8387    0.7176 C.ar      1 <0>        -0.0374
     29 Cl2         7.5369    0.1986    1.2334 Cl        1 <0>        -0.0338
     30 Cl3         9.5443    5.0755    0.0661 Cl        1 <0>        -0.0374
     31 Cl4         4.2386    4.1723   -0.3937 Cl        1 <0>        -0.0097
     32 H1         -5.7074   -3.0973    2.3957 H         1 <0>         0.0624
     33 H2         -4.5809   -3.7827    3.5913 H         1 <0>         0.0718
     34 H3         -5.6338   -2.4195    4.0399 H         1 <0>         0.0651
     35 H4         -3.3875   -2.3293    1.9752 H         1 <0>         0.0860
     36 H5         -3.3139   -1.6514    3.6194 H         1 <0>         0.0827
     37 H6         -5.5654   -1.5579    0.6739 H         1 <0>         0.0913
     38 H7         -5.9299    0.1696    0.9001 H         1 <0>         0.0979
     39 H8         -3.6131    0.7462    0.2304 H         1 <0>         0.0533
     40 H9         -3.2486   -0.9813    0.0042 H         1 <0>         0.0645
     41 H10        -4.4369   -0.1771   -1.0491 H         1 <0>         0.0752
     42 H11        -2.1610   -0.0800    2.2086 H         1 <0>         0.1590
     43 H12         0.1431    3.4826    2.8454 H         1 <0>         0.1628
     44 H13        -1.8199    4.5578    3.8628 H         1 <0>         0.1590
     45 H14         2.8023    0.0655    1.6775 H         1 <0>         0.1114
     46 H15         2.2906    0.6711    0.0839 H         1 <0>         0.1105
     47 H16         4.9963    0.5106    0.2062 H         1 <0>         0.4197
     48 H17         6.7692    5.4780   -0.4253 H         1 <0>         0.1564
     49 H18         9.3697    2.3437    0.8480 H         1 <0>         0.1575
@<TRIPOS>BOND
     1    1    2 1
     2    1   32 1
     3    1   33 1
     4    1   34 1
     5    2    3 1
     6    2   35 1
     7    2   36 1
     8    3    4 1
     9    3    6 1
    10    4    5 1
    11    4   37 1
    12    4   38 1
    13    5   39 1
    14    5   40 1
    15    5   41 1
    16    6    7 2
    17    6    8 2
    18    6    9 1
    19    9   14 ar
    20    9   10 ar
    21   10   11 ar
    22   10   42 1
    23   11   12 ar
    24   11   16 1
    25   12   13 ar
    26   12   43 1
    27   13   14 ar
    28   13   44 1
    29   14   15 1
    30   16   17 2
    31   16   18 1
    32   18   19 1
    33   19   20 1
    34   19   45 1
    35   19   46 1
    36   20   21 2
    37   20   22 am
    38   22   23 1
    39   22   47 1
    40   23   28 ar
    41   23   24 ar
    42   24   25 ar
    43   24   31 1
    44   25   26 ar
    45   25   48 1
    46   26   27 ar
    47   26   30 1
    48   27   28 ar
    49   27   49 1
    50   28   29 1
