@<TRIPOS>MOLECULE
ZINC01136876
   57    60     0     0     0
SMALL
USER_CHARGES
(4R)-5-cyano-N-(2-fluorophenyl)-4-(2-furyl)-2-methyl-6-[2-oxo-2-(p-tolyl)ethyl]sulfanyl-1,4-dihydropyridine-3-carboxamide
@<TRIPOS>ATOM
      1 C1         -9.8590    5.5259    0.1763 C.3       1 <0>        -0.1277
      2 C2         -8.6726    4.5975    0.1370 C.ar      1 <0>        -0.0448
      3 C3         -8.8707    3.2280    0.1111 C.ar      1 <0>        -0.1311
      4 C4         -7.7903    2.3720    0.0751 C.ar      1 <0>        -0.0493
      5 C5         -6.4917    2.8911    0.0644 C.ar      1 <0>        -0.1746
      6 C6         -6.2998    4.2760    0.0962 C.ar      1 <0>        -0.0690
      7 C7         -7.3906    5.1190    0.1267 C.ar      1 <0>        -0.1333
      8 C8         -5.3331    1.9845    0.0260 C.2       1 <0>         0.4184
      9 O1         -5.5030    0.7841    0.0035 O.2       1 <0>        -0.4247
     10 C9         -3.9354    2.5480    0.0146 C.3       1 <0>        -0.2056
     11 S1         -2.7383    1.1913   -0.0339 S.3       1 <0>         0.0209
     12 C10        -1.2348    2.1101   -0.0396 C.2       1 <0>         0.1766
     13 C11        -0.0434    1.4549   -0.0733 C.2       1 <0>        -0.1211
     14 C12         1.2586    2.2045   -0.0762 C.3       1 <0>         0.1415
     15 H1          1.9183    1.7574   -0.8344 H         1 <0>         0.1168
     16 C13         1.0423    3.6496   -0.4228 C.2       1 <0>        -0.2569
     17 C14        -0.1749    4.2139   -0.3707 C.2       1 <0>         0.2006
     18 N1         -1.2746    3.4860   -0.0055 N.pl3     1 <0>        -0.6473
     19 C15        -0.3326    5.6713   -0.7201 C.3       1 <0>        -0.1340
     20 C16         2.1509    4.4376   -0.8154 C.2       1 <0>         0.5921
     21 O2          2.6275    4.3065   -1.9284 O.2       1 <0>        -0.5137
     22 N2          2.6789    5.3328    0.0426 N.am      1 <0>        -0.6778
     23 C17         3.6964    6.1945   -0.3833 C.ar      1 <0>         0.1245
     24 C18         3.7093    6.6638   -1.6898 C.ar      1 <0>        -0.0988
     25 C19         4.7148    7.5141   -2.1073 C.ar      1 <0>        -0.1085
     26 C20         5.7086    7.8987   -1.2261 C.ar      1 <0>        -0.1082
     27 C21         5.7001    7.4345    0.0763 C.ar      1 <0>        -0.1346
     28 C22         4.6937    6.5872    0.5029 C.ar      1 <0>         0.0696
     29 F1          4.6823    6.1376    1.7768 F         1 <0>        -0.1367
     30 C23         1.8868    2.1122    1.2905 C.2       1 <0>        -0.0116
     31 C24         3.0866    1.5718    1.5699 C.2       1 <0>        -0.1969
     32 C25         3.2783    1.6993    2.9648 C.2       1 <0>        -0.2085
     33 C26         2.1807    2.3025    3.4556 C.2       1 <0>        -0.0416
     34 O3          1.3413    2.5502    2.4369 O.3       1 <0>        -0.1663
     35 C27        -0.0299    0.0235   -0.1126 C.1       1 <0>         0.2553
     36 N3         -0.0192   -1.1121   -0.1437 N.1       1 <0>        -0.4035
     37 H2        -10.7869    4.9352    0.1793 H         1 <0>         0.0711
     38 H3         -9.8429    6.1790   -0.7087 H         1 <0>         0.0777
     39 H4         -9.8131    6.1411    1.0870 H         1 <0>         0.0776
     40 H5         -9.8741    2.8287    0.1194 H         1 <0>         0.1329
     41 H6         -7.9465    1.3036    0.0556 H         1 <0>         0.1369
     42 H7         -5.2999    4.6843    0.0930 H         1 <0>         0.1295
     43 H8         -7.2441    6.1888    0.1471 H         1 <0>         0.1321
     44 H9         -3.8040    3.1848   -0.8727 H         1 <0>         0.1343
     45 H10        -3.7741    3.1470    0.9230 H         1 <0>         0.1301
     46 H11        -2.1915    4.0019    0.3157 H         1 <0>         0.4402
     47 H12        -1.3898    5.9593   -0.6229 H         1 <0>         0.0805
     48 H13        -0.0008    5.8381   -1.7555 H         1 <0>         0.0949
     49 H14         0.2777    6.2802   -0.0369 H         1 <0>         0.0928
     50 H15         2.3102    5.3863    1.0776 H         1 <0>         0.4376
     51 H16         2.9336    6.3646   -2.3791 H         1 <0>         0.1418
     52 H17         4.7245    7.8793   -3.1236 H         1 <0>         0.1330
     53 H18         6.4932    8.5636   -1.5559 H         1 <0>         0.1338
     54 H19         6.4775    7.7371    0.7622 H         1 <0>         0.1383
     55 H20         3.7727    1.1280    0.8638 H         1 <0>         0.1453
     56 H21         4.1390    1.3713    3.5288 H         1 <0>         0.1473
     57 H22         2.0043    2.5459    4.4929 H         1 <0>         0.2019
@<TRIPOS>BOND
     1    1    2 1
     2    1   37 1
     3    1   38 1
     4    1   39 1
     5    2    7 ar
     6    2    3 ar
     7    3    4 ar
     8    3   40 1
     9    4    5 ar
    10    4   41 1
    11    5    6 ar
    12    5    8 1
    13    6    7 ar
    14    6   42 1
    15    7   43 1
    16    8    9 2
    17    8   10 1
    18   10   11 1
    19   10   44 1
    20   10   45 1
    21   11   12 1
    22   12   18 1
    23   12   13 2
    24   13   14 1
    25   13   35 1
    26   14   15 1
    27   14   16 1
    28   14   30 1
    29   16   17 2
    30   16   20 1
    31   17   18 1
    32   17   19 1
    33   18   46 1
    34   19   47 1
    35   19   48 1
    36   19   49 1
    37   20   21 2
    38   20   22 am
    39   22   23 1
    40   22   50 1
    41   23   28 ar
    42   23   24 ar
    43   24   25 ar
    44   24   51 1
    45   25   26 ar
    46   25   52 1
    47   26   27 ar
    48   26   53 1
    49   27   28 ar
    50   27   54 1
    51   28   29 1
    52   30   34 1
    53   30   31 2
    54   31   32 1
    55   31   55 1
    56   32   33 2
    57   32   56 1
    58   33   34 1
    59   33   57 1
    60   35   36 3
