@<TRIPOS>MOLECULE
ZINC20082471
   70    75     0     0     0
SMALL
USER_CHARGES
3-[(R)-(1-cyclohexyltetrazol-5-yl)-(2-furylmethyl-(2-thienylmethyl)amino)methyl]-6-ethyl-1H-quinolin-2-one
@<TRIPOS>ATOM
      1 C1         -0.9366   -3.7839    0.5967 C.3       1 <0>        -0.1500
      2 C2          0.0737   -3.8420    1.7442 C.3       1 <0>        -0.0832
      3 C3          0.9661   -2.6288    1.6897 C.ar      1 <0>        -0.1206
      4 C4          0.6030   -1.4763    2.3735 C.ar      1 <0>        -0.0540
      5 C5          1.4039   -0.3555    2.3380 C.ar      1 <0>        -0.1698
      6 C6          2.5891   -0.3769    1.6098 C.ar      1 <0>         0.2152
      7 C7          2.9539   -1.5471    0.9179 C.ar      1 <0>        -0.1377
      8 C8          2.1252   -2.6729    0.9683 C.ar      1 <0>        -0.0490
      9 C9          4.2034   -1.5599    0.1548 C.2       1 <0>        -0.0134
     10 C10         4.9665   -0.4391    0.1428 C.2       1 <0>        -0.1819
     11 C11         4.5554    0.7084    0.8543 C.2       1 <0>         0.5387
     12 O1          5.2564    1.7052    0.8301 O.2       1 <0>        -0.4636
     13 N1          3.4098    0.7296    1.5577 N.am      1 <0>        -0.6422
     14 H1          3.1308    1.6471    2.0965 H         1 <0>         0.4372
     15 C12         6.2585   -0.4188   -0.6327 C.3       1 <0>         0.2409
     16 H2          6.3935   -1.3695   -1.1693 H         1 <0>         0.0709
     17 C13         7.4087   -0.1889    0.3134 C.2       1 <0>         0.1813
     18 N2          7.7307    0.9413    0.8937 N.2       1 <0>        -0.2198
     19 N3          8.7701    0.7309    1.6255 N.2       1 <0>        -0.0779
     20 N4          9.1194   -0.5042    1.5270 N.2       1 <0>        -0.0962
     21 N5          8.3013   -1.1057    0.7310 N.pl3     1 <0>        -0.3080
     22 C14         8.3390   -2.5199    0.3505 C.3       1 <0>         0.1473
     23 C15         8.0908   -3.3873    1.5862 C.3       1 <0>        -0.1283
     24 C16         8.1301   -4.8643    1.1888 C.3       1 <0>        -0.1150
     25 C17         9.5020   -5.1974    0.5991 C.3       1 <0>        -0.1268
     26 C18         9.7502   -4.3300   -0.6366 C.3       1 <0>        -0.1155
     27 C19         9.7108   -2.8530   -0.2393 C.3       1 <0>        -0.1301
     28 N6          6.2169    0.6634   -1.6252 N.3       1 <0>        -0.5013
     29 C20         7.4119    0.6407   -2.4792 C.3       1 <0>         0.1282
     30 C21         8.5557    1.3088   -1.7606 C.2       1 <0>         0.0141
     31 C22         9.5244    0.6814   -1.0696 C.2       1 <0>        -0.2318
     32 C23        10.3830    1.6849   -0.5648 C.2       1 <0>        -0.1952
     33 C24         9.8876    2.8654   -0.9775 C.2       1 <0>        -0.0270
     34 O2          8.7841    2.6311   -1.7063 O.3       1 <0>        -0.1578
     35 C25         4.9916    0.5909   -2.4322 C.3       1 <0>         0.1390
     36 C26         3.9984    1.6070   -1.9300 C.2       1 <0>        -0.1304
     37 C27         4.0277    2.9575   -2.0430 C.2       1 <0>        -0.1236
     38 C28         2.9951    3.6982   -1.4992 C.2       1 <0>        -0.1469
     39 C29         1.9836    3.0522   -0.8692 C.2       1 <0>        -0.1829
     40 S1          2.4740    1.3440   -1.0388 S.3       1 <0>         0.0295
     41 H3         -1.5880   -4.6694    0.6365 H         1 <0>         0.0586
     42 H4         -0.4002   -3.7661   -0.3635 H         1 <0>         0.0559
     43 H5         -1.5479   -2.8744    0.6921 H         1 <0>         0.0562
     44 H6         -0.4627   -3.8598    2.7044 H         1 <0>         0.0726
     45 H7          0.6851   -4.7515    1.6488 H         1 <0>         0.0719
     46 H8         -0.3191   -1.4566    2.9355 H         1 <0>         0.1287
     47 H9          1.1127    0.5361    2.8734 H         1 <0>         0.1318
     48 H10         2.4004   -3.5731    0.4388 H         1 <0>         0.1300
     49 H11         4.5103   -2.4424   -0.3868 H         1 <0>         0.1380
     50 H12         7.5476   -2.6756   -0.3975 H         1 <0>         0.1038
     51 H13         8.8704   -3.1885    2.3363 H         1 <0>         0.0848
     52 H14         7.1045   -3.1478    2.0102 H         1 <0>         0.0710
     53 H15         7.9516   -5.4879    2.0772 H         1 <0>         0.0758
     54 H16         7.3505   -5.0631    0.4387 H         1 <0>         0.0673
     55 H17        10.2816   -4.9986    1.3492 H         1 <0>         0.0687
     56 H18         9.5303   -6.2593    0.3134 H         1 <0>         0.0711
     57 H19        10.7366   -4.5695   -1.0605 H         1 <0>         0.0764
     58 H20         8.9706   -4.5288   -1.3868 H         1 <0>         0.0671
     59 H21         9.8891   -2.2294   -1.1278 H         1 <0>         0.0725
     60 H22        10.4905   -2.6541    0.5107 H         1 <0>         0.0878
     61 H23         7.6804   -0.4015   -2.7065 H         1 <0>         0.0697
     62 H24         7.2034    1.1782   -3.4160 H         1 <0>         0.1033
     63 H25         9.6264   -0.3843   -0.9272 H         1 <0>         0.1328
     64 H26        11.2668    1.5328    0.0370 H         1 <0>         0.1410
     65 H27        10.3088    3.8366   -0.7636 H         1 <0>         0.1981
     66 H28         5.2325    0.8026   -3.4844 H         1 <0>         0.0995
     67 H29         4.5581   -0.4168   -2.3509 H         1 <0>         0.0663
     68 H30         4.8455    3.4474   -2.5505 H         1 <0>         0.1287
     69 H31         2.9940    4.7755   -1.5756 H         1 <0>         0.1289
     70 H32         1.1066    3.4638   -0.3919 H         1 <0>         0.1794
@<TRIPOS>BOND
     1    1    2 1
     2    1   41 1
     3    1   42 1
     4    1   43 1
     5    2    3 1
     6    2   44 1
     7    2   45 1
     8    3    8 ar
     9    3    4 ar
    10    4    5 ar
    11    4   46 1
    12    5    6 ar
    13    5   47 1
    14    6   13 1
    15    6    7 ar
    16    7    8 ar
    17    7    9 1
    18    8   48 1
    19    9   10 2
    20    9   49 1
    21   10   11 1
    22   10   15 1
    23   11   12 2
    24   11   13 am
    25   13   14 1
    26   15   16 1
    27   15   17 1
    28   15   28 1
    29   17   21 1
    30   17   18 2
    31   18   19 1
    32   19   20 2
    33   20   21 1
    34   21   22 1
    35   22   27 1
    36   22   23 1
    37   22   50 1
    38   23   24 1
    39   23   51 1
    40   23   52 1
    41   24   25 1
    42   24   53 1
    43   24   54 1
    44   25   26 1
    45   25   55 1
    46   25   56 1
    47   26   27 1
    48   26   57 1
    49   26   58 1
    50   27   59 1
    51   27   60 1
    52   28   29 1
    53   28   35 1
    54   29   30 1
    55   29   61 1
    56   29   62 1
    57   30   34 1
    58   30   31 2
    59   31   32 1
    60   31   63 1
    61   32   33 2
    62   32   64 1
    63   33   34 1
    64   33   65 1
    65   35   36 1
    66   35   66 1
    67   35   67 1
    68   36   40 1
    69   36   37 2
    70   37   38 1
    71   37   68 1
    72   38   39 2
    73   38   69 1
    74   39   40 1
    75   39   70 1
