@<TRIPOS>MOLECULE
ZINC02490242
   28    29     0     0     0
SMALL
USER_CHARGES

@<TRIPOS>ATOM
      1 C1         -0.0187    1.5258    0.0104 C.3       1 <0>        -0.1841
      2 C2          0.0021   -0.0041    0.0020 C.3       1 <0>         0.1082
      3 C3         -1.4242   -0.5392    0.0506 C.3       1 <0>        -0.1224
      4 C4         -2.0631   -0.2396    1.4013 C.2       1 <0>         0.1088
      5 C5         -1.2771    0.0524    2.4623 C.2       1 <0>        -0.1953
      6 C6         -1.7945    0.3214    3.7572 C.2       1 <0>         0.0842
      7 S1         -3.5650    0.2650    3.9098 S.3       1 <0>         0.2201
      8 C7         -4.3298   -0.0980    2.4573 C.2       1 <0>         0.2051
      9 N1         -5.6919   -0.1829    2.3399 N.pl3     1 <0>        -0.7791
     10 C8         -3.4682   -0.3045    1.3824 C.2       1 <0>        -0.1809
     11 C9         -4.0775   -0.6157    0.1244 C.1       1 <0>         0.2500
     12 N2         -4.5609   -0.8627   -0.8735 N.1       1 <0>        -0.4082
     13 S2         -0.7774    0.6769    5.0876 S.2       1 <0>        -0.3945
     14 C10         0.2295    0.1295    2.3574 C.3       1 <0>         0.1146
     15 O1          0.6941   -0.4858    1.1609 O.3       1 <0>        -0.3566
     16 C11         0.7010   -0.5050   -1.2635 C.3       1 <0>        -0.1401
     17 H1          1.0039    1.9031    0.0027 H         1 <0>         0.0740
     18 H2         -0.5459    1.8868   -0.8726 H         1 <0>         0.0703
     19 H3         -0.5289    1.8773    0.9072 H         1 <0>         0.0644
     20 H4         -2.0119   -0.0682   -0.7374 H         1 <0>         0.0955
     21 H5         -1.4092   -1.6174   -0.1087 H         1 <0>         0.1063
     22 H6         -6.2559   -0.0309    3.1143 H         1 <0>         0.4251
     23 H7          0.5350    1.1758    2.3633 H         1 <0>         0.0786
     24 H8          0.6737   -0.3762    3.2147 H         1 <0>         0.1243
     25 H9          1.7243   -0.1302   -1.2859 H         1 <0>         0.0723
     26 H10         0.7132   -1.5949   -1.2646 H         1 <0>         0.0677
     27 H11         0.1635   -0.1467   -2.1414 H         1 <0>         0.0729
     28 H12        -6.0925   -0.3950    1.4823 H         1 <0>         0.4187
@<TRIPOS>BOND
     1    1    2 1
     2    1   17 1
     3    1   18 1
     4    1   19 1
     5    2   15 1
     6    2    3 1
     7    2   16 1
     8    3    4 1
     9    3   20 1
    10    3   21 1
    11    4   10 1
    12    4    5 2
    13    5    6 1
    14    5   14 1
    15    6    7 1
    16    6   13 2
    17    7    8 1
    18    8    9 1
    19    8   10 2
    20    9   22 1
    21    9   28 1
    22   10   11 1
    23   11   12 3
    24   14   15 1
    25   14   23 1
    26   14   24 1
    27   16   25 1
    28   16   26 1
    29   16   27 1
