@<TRIPOS>MOLECULE
ZINC02960473
   70    74     0     0     0
SMALL
USER_CHARGES

@<TRIPOS>ATOM
      1 C1         -0.1225    0.7605   -0.7036 C.ar      1 <0>        -0.0970
      2 C2          0.9510    1.6254   -0.5963 C.ar      1 <0>        -0.0992
      3 C3          2.2300    1.1258   -0.4472 C.ar      1 <0>        -0.0935
      4 C4          2.4372   -0.2465   -0.4051 C.ar      1 <0>         0.1082
      5 C5          1.3572   -1.1124   -0.5130 C.ar      1 <0>        -0.1116
      6 C6          0.0806   -0.6067   -0.6620 C.ar      1 <0>        -0.0962
      7 N1          3.7338   -0.7566   -0.2543 N.pl3     1 <0>        -0.2947
      8 C7          4.0787   -1.8814    0.4296 C.2       1 <0>         0.3364
      9 C8          5.4285   -2.0211    0.3312 C.2       1 <0>        -0.2953
     10 C9          5.9160   -0.9555   -0.4308 C.2       1 <0>         0.0855
     11 N2          4.9057   -0.2031   -0.7858 N.2       1 <0>        -0.2400
     12 C10         6.2522   -3.1282    0.9370 C.3       1 <0>         0.0852
     13 N3          6.2217   -4.3010    0.0530 N.4       1 <0>        -0.3891
     14 C11         6.8865   -3.9742   -1.2142 C.3       1 <0>        -0.0093
     15 C12         6.7866   -5.1656   -2.1691 C.3       1 <0>        -0.1269
     16 C13         7.4667   -6.3813   -1.5328 C.3       1 <0>        -0.1215
     17 C14         6.8140   -6.6676   -0.1773 C.3       1 <0>        -0.1398
     18 C15         6.9130   -5.4205    0.7038 C.3       1 <0>        -0.0059
     19 C16         7.3039   -7.5786   -2.4334 C.2       1 <0>         0.5144
     20 O1          6.7033   -7.4718   -3.4816 O.2       1 <0>        -0.5246
     21 N4          7.8259   -8.7681   -2.0740 N.am      1 <0>        -0.7250
     22 C17         7.6677   -9.9320   -2.9494 C.3       1 <0>         0.1215
     23 C18         8.3476  -11.1455   -2.3123 C.3       1 <0>        -0.0964
     24 C19         8.1848  -12.3428   -3.2129 C.2       1 <0>        -0.1302
     25 C20         9.1446  -12.6174   -4.0369 C.2       1 <0>        -0.1375
     26 C21         9.1222  -13.7677   -5.0005 C.3       1 <0>        -0.0948
     27 C22         8.0517  -14.7802   -4.5878 C.3       1 <0>        -0.1229
     28 C23         6.7407  -14.0247   -4.3359 C.3       1 <0>        -0.1219
     29 C24         6.9228  -13.1461   -3.0944 C.3       1 <0>        -0.0819
     30 N5          3.2065   -2.7360    1.1091 N.pl3     1 <0>        -0.4075
     31 C25         2.3462   -2.3689    2.1046 C.2       1 <0>         0.0148
     32 C26         1.6752   -3.4671    2.5076 C.2       1 <0>        -0.1730
     33 C27         2.1360   -4.5519    1.7348 C.2       1 <0>        -0.1462
     34 C28         3.0682   -4.0761    0.8842 C.2       1 <0>        -0.0447
     35 H1         -1.1222    1.1536   -0.8156 H         1 <0>         0.1393
     36 H2          0.7893    2.6927   -0.6296 H         1 <0>         0.1419
     37 H3          3.0681    1.8018   -0.3639 H         1 <0>         0.1380
     38 H4          1.5152   -2.1803   -0.4809 H         1 <0>         0.1271
     39 H5         -0.7599   -1.2797   -0.7460 H         1 <0>         0.1400
     40 H6          6.9511   -0.7846   -0.6873 H         1 <0>         0.2075
     41 H7          7.2816   -2.7908    1.0577 H         1 <0>         0.1467
     42 H8          5.8411   -3.3960    1.9103 H         1 <0>         0.1351
     43 H9          6.4035   -3.1069   -1.6642 H         1 <0>         0.1318
     44 H10         7.9358   -3.7473   -1.0255 H         1 <0>         0.1357
     45 H11         5.7376   -5.3932   -2.3587 H         1 <0>         0.0938
     46 H12         7.2823   -4.9216   -3.1087 H         1 <0>         0.1210
     47 H13         8.5269   -6.1726   -1.3900 H         1 <0>         0.1182
     48 H14         5.7656   -6.9263   -0.3255 H         1 <0>         0.0941
     49 H15         7.3294   -7.4971    0.3068 H         1 <0>         0.1188
     50 H16         7.9617   -5.1628    0.8516 H         1 <0>         0.1368
     51 H17         6.4494   -5.6209    1.6698 H         1 <0>         0.1370
     52 H18         8.3063   -8.8535   -1.2356 H         1 <0>         0.4012
     53 H19         6.6069  -10.1409   -3.0879 H         1 <0>         0.0732
     54 H20         8.1263   -9.7245   -3.9162 H         1 <0>         0.0731
     55 H21         9.4084  -10.9366   -2.1738 H         1 <0>         0.0746
     56 H22         7.8889  -11.3531   -1.3456 H         1 <0>         0.0756
     57 H23        10.0155  -11.9788   -4.0309 H         1 <0>         0.1028
     58 H24         8.9017  -13.3964   -6.0013 H         1 <0>         0.0759
     59 H25        10.0975  -14.2545   -5.0047 H         1 <0>         0.0740
     60 H26         7.9077  -15.5075   -5.3869 H         1 <0>         0.0676
     61 H27         8.3618  -15.2901   -3.6757 H         1 <0>         0.0650
     62 H28         6.5053  -13.4016   -5.1987 H         1 <0>         0.0651
     63 H29         5.9342  -14.7375   -4.1640 H         1 <0>         0.0675
     64 H30         6.9774  -13.7760   -2.2065 H         1 <0>         0.0739
     65 H31         6.0719  -12.4709   -3.0041 H         1 <0>         0.0683
     66 H32         2.2247   -1.3715    2.5007 H         1 <0>         0.1692
     67 H33         0.9225   -3.5078    3.2810 H         1 <0>         0.1548
     68 H34         1.8011   -5.5761    1.8077 H         1 <0>         0.1546
     69 H35         3.6131   -4.6552    0.1533 H         1 <0>         0.1505
     70 H36         5.2634   -4.5589   -0.1290 H         1 <0>         0.4109
@<TRIPOS>BOND
     1    1    6 ar
     2    1    2 ar
     3    1   35 1
     4    2    3 ar
     5    2   36 1
     6    3    4 ar
     7    3   37 1
     8    4    5 ar
     9    4    7 1
    10    5    6 ar
    11    5   38 1
    12    6   39 1
    13    7   11 1
    14    7    8 1
    15    8    9 2
    16    8   30 1
    17    9   10 1
    18    9   12 1
    19   10   11 2
    20   10   40 1
    21   12   13 1
    22   12   41 1
    23   12   42 1
    24   13   18 1
    25   13   14 1
    26   13   70 1
    27   14   15 1
    28   14   43 1
    29   14   44 1
    30   15   16 1
    31   15   45 1
    32   15   46 1
    33   16   17 1
    34   16   19 1
    35   16   47 1
    36   17   18 1
    37   17   48 1
    38   17   49 1
    39   18   50 1
    40   18   51 1
    41   19   20 2
    42   19   21 am
    43   21   22 1
    44   21   52 1
    45   22   23 1
    46   22   53 1
    47   22   54 1
    48   23   24 1
    49   23   55 1
    50   23   56 1
    51   24   29 1
    52   24   25 2
    53   25   26 1
    54   25   57 1
    55   26   27 1
    56   26   58 1
    57   26   59 1
    58   27   28 1
    59   27   60 1
    60   27   61 1
    61   28   29 1
    62   28   62 1
    63   28   63 1
    64   29   64 1
    65   29   65 1
    66   30   34 1
    67   30   31 1
    68   31   32 2
    69   31   66 1
    70   32   33 1
    71   32   67 1
    72   33   34 2
    73   33   68 1
    74   34   69 1
