@<TRIPOS>MOLECULE
ZINC02631482
   32    34     0     0     0
SMALL
USER_CHARGES
2,3-dichloro-N-(2-methylbenzothiazol-6-yl)-benzenesulfonamide
@<TRIPOS>ATOM
      1 C1         -0.8976   -1.2458    1.1910 C.3       1 <0>        -0.0703
      2 C2          0.1998   -0.2370    0.9692 C.2       1 <0>         0.1739
      3 N1          0.1067    1.0582    0.8395 N.2       1 <0>        -0.5019
      4 C3          1.1818    1.8521    0.6431 C.ar      1 <0>         0.0672
      5 C4          1.2140    3.2580    0.4881 C.ar      1 <0>        -0.0238
      6 C5          2.3887    3.9130    0.2955 C.ar      1 <0>        -0.1542
      7 C6          3.6045    3.2326    0.2432 C.ar      1 <0>         0.1828
      8 C7          3.6144    1.8524    0.3923 C.ar      1 <0>        -0.0746
      9 C8          2.4285    1.1874    0.5859 C.ar      1 <0>        -0.1170
     10 S1          1.9595   -0.5105    0.8169 S.3       1 <0>        -0.0174
     11 N2          4.7990    3.9317    0.0438 N.pl3     1 <0>        -1.0483
     12 S2          5.1010    5.3161    0.9009 S.o2      1 <0>         2.6891
     13 O1          4.7896    5.0300    2.2575 O.2       1 <0>        -0.9289
     14 O2          6.3831    5.7742    0.4938 O.2       1 <0>        -0.9235
     15 C9          3.9393    6.5264    0.3620 C.ar      1 <0>        -0.6715
     16 C10         3.0073    7.0329    1.2486 C.ar      1 <0>        -0.0064
     17 C11         2.0953    7.9819    0.8266 C.ar      1 <0>        -0.1176
     18 C12         2.1141    8.4257   -0.4826 C.ar      1 <0>        -0.0401
     19 C13         3.0458    7.9201   -1.3709 C.ar      1 <0>        -0.0505
     20 C14         3.9635    6.9738   -0.9465 C.ar      1 <0>         0.0562
     21 Cl1         5.1386    6.3437   -2.0582 Cl        1 <0>        -0.0173
     22 Cl2         3.0698    8.4770   -3.0150 Cl        1 <0>        -0.0306
     23 H1         -1.2674   -1.5980    0.2281 H         1 <0>         0.0991
     24 H2         -0.5064   -2.0889    1.7604 H         1 <0>         0.0942
     25 H3         -1.7127   -0.7801    1.7450 H         1 <0>         0.1006
     26 H4          0.2916    3.8186    0.5230 H         1 <0>         0.1421
     27 H5          2.3805    4.9868    0.1805 H         1 <0>         0.1363
     28 H6          4.5457    1.3068    0.3551 H         1 <0>         0.1449
     29 H7          5.4506    3.6058   -0.5965 H         1 <0>         0.4329
     30 H8          2.9915    6.6865    2.2714 H         1 <0>         0.1635
     31 H9          1.3673    8.3767    1.5198 H         1 <0>         0.1553
     32 H10         1.4009    9.1670   -0.8118 H         1 <0>         0.1555
@<TRIPOS>BOND
     1    1    2 1
     2    1   23 1
     3    1   24 1
     4    1   25 1
     5    2   10 1
     6    2    3 2
     7    3    4 1
     8    4    9 ar
     9    4    5 ar
    10    5    6 ar
    11    5   26 1
    12    6    7 ar
    13    6   27 1
    14    7    8 ar
    15    7   11 1
    16    8    9 ar
    17    8   28 1
    18    9   10 1
    19   11   12 1
    20   11   29 1
    21   12   13 2
    22   12   14 2
    23   12   15 1
    24   15   20 ar
    25   15   16 ar
    26   16   17 ar
    27   16   30 1
    28   17   18 ar
    29   17   31 1
    30   18   19 ar
    31   18   32 1
    32   19   20 ar
    33   19   22 1
    34   20   21 1
