@<TRIPOS>MOLECULE
ZINC01040981
   20    20     0     0     0
SMALL
USER_CHARGES
5-bromo-2-iodo-N-methyl-benzenesulfonamide
@<TRIPOS>ATOM
      1 C1          0.9968    4.1242    2.6975 C.3       1 <0>         0.0826
      2 N1          0.3629    4.3203    1.3914 N.pl3     1 <0>        -1.1128
      3 S1          1.1666    3.8922    0.0083 S.o2      1 <0>         2.6809
      4 O1          2.4674    4.4562    0.1034 O.2       1 <0>        -0.9443
      5 O2          0.2909    4.1751   -1.0744 O.2       1 <0>        -0.9290
      6 C2          1.3723    2.1426    0.0456 C.ar      1 <0>        -0.6466
      7 C3          2.6410    1.5971    0.1050 C.ar      1 <0>         0.0116
      8 C4          2.8025    0.2237    0.1335 C.ar      1 <0>        -0.0985
      9 C5          1.6941   -0.6037    0.1029 C.ar      1 <0>        -0.0312
     10 C6          0.4260   -0.0580    0.0439 C.ar      1 <0>        -0.0962
     11 C7          0.2647    1.3155    0.0150 C.ar      1 <0>        -0.0064
     12 I1         -1.6577    2.1424   -0.0839 I         1 <0>         0.0033
     13 Br1         4.5380   -0.5228    0.2148 Br        1 <0>        -0.0209
     14 H1          0.3007    4.4105    3.4859 H         1 <0>         0.0886
     15 H2          1.2683    3.0752    2.8158 H         1 <0>         0.0589
     16 H3          1.8931    4.7411    2.7626 H         1 <0>         0.0717
     17 H4         -0.5277    4.7009    1.3368 H         1 <0>         0.4233
     18 H5          3.5061    2.2431    0.1286 H         1 <0>         0.1623
     19 H6          1.8201   -1.6761    0.1247 H         1 <0>         0.1525
     20 H7         -0.4393   -0.7039    0.0200 H         1 <0>         0.1503
@<TRIPOS>BOND
     1    1    2 1
     2    1   14 1
     3    1   15 1
     4    1   16 1
     5    2    3 1
     6    2   17 1
     7    3    4 2
     8    3    5 2
     9    3    6 1
    10    6   11 ar
    11    6    7 ar
    12    7    8 ar
    13    7   18 1
    14    8    9 ar
    15    8   13 1
    16    9   10 ar
    17    9   19 1
    18   10   11 ar
    19   10   20 1
    20   11   12 1
