@<TRIPOS>MOLECULE
ZINC00938459
   54    57     0     0     0
SMALL
USER_CHARGES
methyl 6-methyl-2-[2-[9-oxo-3-(trifluoromethyl)-7-thia-10-azabicyclo[4.4.0]deca-2,4,11-trien-8-yl]acetyl]amino-4,5,6,7-tetrahydrobenzothiophene-3-carboxylate
@<TRIPOS>ATOM
      1 C1         10.7588    2.8958   -6.7161 C.3       1 <0>        -0.1477
      2 C2          9.3443    3.4774   -6.6714 C.3       1 <0>        -0.0876
      3 H1          9.3578    4.5003   -7.0477 H         1 <0>         0.0769
      4 C3          8.4104    2.6227   -7.5331 C.3       1 <0>        -0.1132
      5 C4          7.0623    3.3272   -7.6950 C.3       1 <0>        -0.0631
      6 C5          6.5351    3.7002   -6.3149 C.2       1 <0>        -0.0624
      7 C6          7.3585    3.7491   -5.2456 C.2       1 <0>        -0.2048
      8 S1          6.3169    4.2168   -3.8927 S.3       1 <0>         0.2503
      9 C7          4.8073    4.3465   -4.7332 C.2       1 <0>         0.0778
     10 C8          5.1439    4.0189   -6.0400 C.2       1 <0>        -0.2054
     11 C9          4.1359    3.9996   -7.1021 C.2       1 <0>         0.5294
     12 O1          3.9132    5.0063   -7.7475 O.2       1 <0>        -0.4924
     13 O2          3.4544    2.8656   -7.3646 O.3       1 <0>        -0.3514
     14 C10         2.4705    2.9197   -8.4310 C.3       1 <0>         0.0307
     15 N1          3.5645    4.6884   -4.2237 N.am      1 <0>        -0.6186
     16 C11         3.4281    4.9719   -2.9132 C.2       1 <0>         0.5180
     17 O3          4.3929    4.9279   -2.1796 O.2       1 <0>        -0.4761
     18 C12         2.0768    5.3437   -2.3593 C.3       1 <0>        -0.1290
     19 C13         2.1978    5.6144   -0.8583 C.3       1 <0>        -0.0884
     20 H2          2.9540    6.3791   -0.6806 H         1 <0>         0.1673
     21 C14         0.8702    6.0803   -0.3191 C.2       1 <0>         0.5300
     22 O4          0.6932    7.2711   -0.1714 O.2       1 <0>        -0.4943
     23 N2         -0.1161    5.2497    0.0030 N.am      1 <0>        -0.6516
     24 C15        -0.0605    3.8592    0.0134 C.ar      1 <0>         0.1570
     25 C16        -1.2473    3.1326    0.0262 C.ar      1 <0>        -0.0897
     26 C17        -1.2188    1.7523    0.0173 C.ar      1 <0>        -0.1469
     27 C18        -0.0126    1.0758    0.0080 C.ar      1 <0>        -0.0771
     28 C19         1.1747    1.7847    0.0004 C.ar      1 <0>        -0.0557
     29 C20         1.1515    3.1696    0.0042 C.ar      1 <0>        -0.1199
     30 S2          2.6636    4.0818    0.0039 S.3       1 <0>        -0.0193
     31 C21        -2.5112    0.9772    0.0232 C.3       1 <0>         0.5099
     32 F1         -2.2328   -0.3938    0.0177 F         1 <0>        -0.1721
     33 F2         -3.2432    1.2998    1.1710 F         1 <0>        -0.1727
     34 F3         -3.2574    1.3061   -1.1135 F         1 <0>        -0.1736
     35 C22         8.8294    3.4679   -5.2247 C.3       1 <0>        -0.0311
     36 H3         10.7423    1.8714   -6.3441 H         1 <0>         0.0576
     37 H4         11.1225    2.9034   -7.7436 H         1 <0>         0.0587
     38 H5         11.4192    3.4983   -6.0924 H         1 <0>         0.0582
     39 H6          8.8602    2.4716   -8.5144 H         1 <0>         0.0721
     40 H7          8.2573    1.6565   -7.0523 H         1 <0>         0.0689
     41 H8          7.1909    4.2293   -8.2931 H         1 <0>         0.0797
     42 H9          6.3576    2.6584   -8.1892 H         1 <0>         0.0738
     43 H10         2.9622    3.1890   -9.3658 H         1 <0>         0.0658
     44 H11         1.9964    1.9441   -8.5378 H         1 <0>         0.1050
     45 H12         1.7142    3.6668   -8.1900 H         1 <0>         0.0634
     46 H13         2.7928    4.7237   -4.8104 H         1 <0>         0.4196
     47 H14         1.3780    4.5239   -2.5254 H         1 <0>         0.1114
     48 H15         1.7121    6.2395   -2.8618 H         1 <0>         0.1252
     49 H16        -0.9607    5.6539    0.2563 H         1 <0>         0.4190
     50 H17        -2.1948    3.6508    0.0386 H         1 <0>         0.1458
     51 H18         0.0021   -0.0041    0.0020 H         1 <0>         0.1521
     52 H19         2.1183    1.2595   -0.0081 H         1 <0>         0.1521
     53 H20         9.3422    4.2371   -4.6474 H         1 <0>         0.0827
     54 H21         9.0100    2.4906   -4.7771 H         1 <0>         0.0857
@<TRIPOS>BOND
     1    1    2 1
     2    1   36 1
     3    1   37 1
     4    1   38 1
     5    2    3 1
     6    2   35 1
     7    2    4 1
     8    4    5 1
     9    4   39 1
    10    4   40 1
    11    5    6 1
    12    5   41 1
    13    5   42 1
    14    6   10 1
    15    6    7 2
    16    7    8 1
    17    7   35 1
    18    8    9 1
    19    9   10 2
    20    9   15 1
    21   10   11 1
    22   11   12 2
    23   11   13 1
    24   13   14 1
    25   14   43 1
    26   14   44 1
    27   14   45 1
    28   15   16 am
    29   15   46 1
    30   16   17 2
    31   16   18 1
    32   18   19 1
    33   18   47 1
    34   18   48 1
    35   19   20 1
    36   19   30 1
    37   19   21 1
    38   21   22 2
    39   21   23 am
    40   23   24 1
    41   23   49 1
    42   24   29 ar
    43   24   25 ar
    44   25   26 ar
    45   25   50 1
    46   26   27 ar
    47   26   31 1
    48   27   28 ar
    49   27   51 1
    50   28   29 ar
    51   28   52 1
    52   29   30 1
    53   31   32 1
    54   31   33 1
    55   31   34 1
    56   35   53 1
    57   35   54 1
