@<TRIPOS>MOLECULE
ZINC01027505
   53    56     0     0     0
SMALL
USER_CHARGES
methyl 3-[2-[1-phenyl-5-(trifluoromethyl)pyrazol-4-yl]carbonylamino-4-(trifluoromethyl)phenoxy]thiophene-2-carboxylate
@<TRIPOS>ATOM
      1 C1         -2.6520   -5.6067    0.3082 C.3       1 <0>         0.0370
      2 O1         -2.5301   -4.5797    1.2943 O.3       1 <0>        -0.3529
      3 C2         -2.5101   -3.3047    0.8519 C.2       1 <0>         0.5535
      4 O2         -2.5940   -3.0727   -0.3399 O.2       1 <0>        -0.4879
      5 C3         -2.3916   -2.2380    1.7736 C.2       1 <0>        -0.2862
      6 C4         -2.3518   -0.8664    1.5295 C.2       1 <0>         0.1856
      7 C5         -2.2245   -0.0437    2.6275 C.2       1 <0>        -0.2452
      8 C6         -2.1571   -0.5959    3.8651 C.2       1 <0>        -0.1392
      9 S1         -2.2548   -2.2977    3.5512 S.3       1 <0>         0.2247
     10 O3         -2.4290   -0.3655    0.2704 O.3       1 <0>        -0.2156
     11 C7         -2.4846    0.9848    0.1231 C.ar      1 <0>         0.0783
     12 C8         -3.7111    1.6243    0.0366 C.ar      1 <0>        -0.0982
     13 C9         -3.7659    2.9973   -0.1136 C.ar      1 <0>        -0.0711
     14 C10        -2.5991    3.7369   -0.1776 C.ar      1 <0>        -0.1574
     15 C11        -1.3721    3.1077   -0.0869 C.ar      1 <0>        -0.0609
     16 C12        -1.3086    1.7294    0.0582 C.ar      1 <0>         0.1485
     17 N1         -0.0663    1.0889    0.1450 N.am      1 <0>        -0.6604
     18 C13         0.9662    1.7011    0.7579 C.2       1 <0>         0.5916
     19 O4          0.8381    2.8354    1.1778 O.2       1 <0>        -0.4966
     20 C14         2.2504    0.9961    0.9194 C.2       1 <0>        -0.2267
     21 C15         2.5456   -0.3182    0.4913 C.2       1 <0>         0.0893
     22 N2          3.7832   -0.5796    0.8112 N.2       1 <0>        -0.2434
     23 N3          4.3293    0.5340    1.4591 N.pl3     1 <0>        -0.2683
     24 C16         3.3884    1.4938    1.5224 C.2       1 <0>         0.0565
     25 C17         3.5476    2.8602    2.1377 C.3       1 <0>         0.5337
     26 F1          4.0036    3.7585    1.1670 F         1 <0>        -0.1602
     27 F2          2.3135    3.2954    2.6327 F         1 <0>        -0.1270
     28 F3          4.4733    2.7953    3.1846 F         1 <0>        -0.1655
     29 C18         5.6352    0.6327    1.9583 C.ar      1 <0>         0.1129
     30 C19         6.3109    1.8444    1.9042 C.ar      1 <0>        -0.1131
     31 C20         7.5956    1.9399    2.4022 C.ar      1 <0>        -0.0967
     32 C21         8.2133    0.8274    2.9435 C.ar      1 <0>        -0.1007
     33 C22         7.5448   -0.3821    2.9940 C.ar      1 <0>        -0.1034
     34 C23         6.2579   -0.4825    2.5028 C.ar      1 <0>        -0.0895
     35 C24        -2.6660    5.2336   -0.3405 C.3       1 <0>         0.5109
     36 F4         -4.0043    5.6366   -0.4024 F         1 <0>        -0.1740
     37 F5         -2.0435    5.8497    0.7504 F         1 <0>        -0.1699
     38 F6         -2.0124    5.6040   -1.5206 F         1 <0>        -0.1725
     39 H1         -3.5831   -5.4731   -0.2424 H         1 <0>         0.0626
     40 H2         -1.8103   -5.5494   -0.3820 H         1 <0>         0.0624
     41 H3         -2.6554   -6.5810    0.7968 H         1 <0>         0.1045
     42 H4         -2.1830    1.0285    2.5048 H         1 <0>         0.1496
     43 H5         -2.0612   -0.0953    4.8172 H         1 <0>         0.2013
     44 H6         -4.6243    1.0498    0.0870 H         1 <0>         0.1522
     45 H7         -4.7226    3.4939   -0.1808 H         1 <0>         0.1525
     46 H8         -0.4626    3.6884   -0.1331 H         1 <0>         0.1624
     47 H9          0.0523    0.2064   -0.2396 H         1 <0>         0.4193
     48 H10         1.8663   -0.9879   -0.0150 H         1 <0>         0.2086
     49 H11         5.8307    2.7125    1.4772 H         1 <0>         0.1289
     50 H12         8.1200    2.8833    2.3648 H         1 <0>         0.1402
     51 H13         9.2197    0.9033    3.3279 H         1 <0>         0.1366
     52 H14         8.0297   -1.2492    3.4176 H         1 <0>         0.1396
     53 H15         5.7363   -1.4274    2.5425 H         1 <0>         0.1390
@<TRIPOS>BOND
     1    1    2 1
     2    1   39 1
     3    1   40 1
     4    1   41 1
     5    2    3 1
     6    3    4 2
     7    3    5 1
     8    5    9 1
     9    5    6 2
    10    6    7 1
    11    6   10 1
    12    7    8 2
    13    7   42 1
    14    8    9 1
    15    8   43 1
    16   10   11 1
    17   11   16 ar
    18   11   12 ar
    19   12   13 ar
    20   12   44 1
    21   13   14 ar
    22   13   45 1
    23   14   15 ar
    24   14   35 1
    25   15   16 ar
    26   15   46 1
    27   16   17 1
    28   17   18 am
    29   17   47 1
    30   18   19 2
    31   18   20 1
    32   20   24 2
    33   20   21 1
    34   21   22 2
    35   21   48 1
    36   22   23 1
    37   23   24 1
    38   23   29 1
    39   24   25 1
    40   25   26 1
    41   25   27 1
    42   25   28 1
    43   29   34 ar
    44   29   30 ar
    45   30   31 ar
    46   30   49 1
    47   31   32 ar
    48   31   50 1
    49   32   33 ar
    50   32   51 1
    51   33   34 ar
    52   33   52 1
    53   34   53 1
    54   35   36 1
    55   35   37 1
    56   35   38 1
