@<TRIPOS>MOLECULE
ZINC02052213
   61    65     0     0     0
SMALL
USER_CHARGES
N-[[6-methyl-2-(p-tolyl)benzotriazol-5-yl]thiocarbamoyl]-2,2-diphenyl-acetamide
@<TRIPOS>ATOM
      1 C1          2.4702    7.4380    1.8133 C.3       1 <0>        -0.1200
      2 C2          2.0102    6.0828    1.3412 C.ar      1 <0>        -0.0678
      3 C3          1.0461    5.3943    2.0545 C.ar      1 <0>        -0.1067
      4 C4          0.6224    4.1522    1.6245 C.ar      1 <0>        -0.0872
      5 C5          1.1656    3.5946    0.4744 C.ar      1 <0>         0.1156
      6 C6          2.1378    4.2861   -0.2365 C.ar      1 <0>        -0.0874
      7 C7          2.5534    5.5301    0.1958 C.ar      1 <0>        -0.1074
      8 N1          0.7380    2.3351    0.0356 N.pl3     1 <0>        -0.0476
      9 N2          1.1950    1.7550   -1.0190 N.2       1 <0>        -0.2794
     10 C8          0.5923    0.5847   -1.1591 C.ar      1 <0>         0.0391
     11 C9          0.6439   -0.4840   -2.0715 C.ar      1 <0>        -0.0609
     12 C10        -0.1558   -1.5648   -1.8839 C.ar      1 <0>        -0.0592
     13 C11        -1.0386   -1.6469   -0.7989 C.ar      1 <0>         0.1245
     14 C12        -1.1350   -0.6434    0.1214 C.ar      1 <0>         0.0021
     15 C13        -0.3330    0.5014   -0.0186 C.ar      1 <0>         0.0355
     16 N3         -0.1541    1.6338    0.6438 N.2       1 <0>        -0.2634
     17 N4         -1.8402   -2.7845   -0.6553 N.pl3     1 <0>        -0.6171
     18 C14        -3.1435   -2.6547   -0.3374 C.2       1 <0>         0.5083
     19 S1         -3.8435   -1.0972   -0.2141 S.2       1 <0>        -0.4810
     20 N5         -3.8957   -3.7510   -0.1166 N.am      1 <0>        -0.6377
     21 C15        -5.1990   -3.6212    0.2012 C.2       1 <0>         0.4941
     22 O1         -5.6948   -2.5182    0.2885 O.2       1 <0>        -0.3855
     23 C16        -6.0401   -4.8471    0.4481 C.3       1 <0>        -0.0176
     24 C17        -7.4491   -4.4305    0.7829 C.ar      1 <0>        -0.0718
     25 C18        -8.2278   -3.7990   -0.1688 C.ar      1 <0>        -0.0899
     26 C19        -9.5219   -3.4212    0.1368 C.ar      1 <0>        -0.1185
     27 C20       -10.0339   -3.6658    1.3973 C.ar      1 <0>        -0.1119
     28 C21        -9.2533   -4.2921    2.3508 C.ar      1 <0>        -0.1207
     29 C22        -7.9610   -4.6747    2.0436 C.ar      1 <0>        -0.1052
     30 C23        -6.0511   -5.7064   -0.7899 C.ar      1 <0>        -0.0892
     31 C24        -6.3647   -5.1490   -2.0154 C.ar      1 <0>        -0.1111
     32 C25        -6.3701   -5.9362   -3.1517 C.ar      1 <0>        -0.1132
     33 C26        -6.0716   -7.2829   -3.0609 C.ar      1 <0>        -0.1122
     34 C27        -5.7635   -7.8415   -1.8346 C.ar      1 <0>        -0.1156
     35 C28        -5.7530   -7.0532   -0.6991 C.ar      1 <0>        -0.1073
     36 C29        -0.0929   -2.7048   -2.8675 C.3       1 <0>        -0.1183
     37 H1          3.3162    7.3190    2.4903 H         1 <0>         0.0773
     38 H2          2.7732    8.0381    0.9552 H         1 <0>         0.0719
     39 H3          1.6541    7.9371    2.3357 H         1 <0>         0.0720
     40 H4          0.6243    5.8283    2.9490 H         1 <0>         0.1392
     41 H5         -0.1304    3.6149    2.1823 H         1 <0>         0.1456
     42 H6          2.5653    3.8532   -1.1288 H         1 <0>         0.1450
     43 H7          3.3062    6.0703   -0.3591 H         1 <0>         0.1390
     44 H8          1.3153   -0.4451   -2.9166 H         1 <0>         0.1435
     45 H9         -1.8221   -0.7289    0.9502 H         1 <0>         0.1535
     46 H10        -1.4580   -3.6666   -0.7845 H         1 <0>         0.4100
     47 H11        -3.4991   -4.6335   -0.1865 H         1 <0>         0.4111
     48 H12        -5.6213   -5.4136    1.2799 H         1 <0>         0.1168
     49 H13        -7.8263   -3.6042   -1.1523 H         1 <0>         0.1230
     50 H14       -10.1316   -2.9315   -0.6081 H         1 <0>         0.1231
     51 H15       -11.0437   -3.3672    1.6372 H         1 <0>         0.1227
     52 H16        -9.6532   -4.4829    3.3357 H         1 <0>         0.1239
     53 H17        -7.3511   -5.1640    2.7885 H         1 <0>         0.1216
     54 H18        -6.6019   -4.0977   -2.0856 H         1 <0>         0.1256
     55 H19        -6.6112   -5.4999   -4.1097 H         1 <0>         0.1257
     56 H20        -6.0794   -7.8987   -3.9481 H         1 <0>         0.1250
     57 H21        -5.5306   -8.8937   -1.7636 H         1 <0>         0.1266
     58 H22        -5.5123   -7.4896    0.2591 H         1 <0>         0.1267
     59 H23         0.6569   -3.4254   -2.5411 H         1 <0>         0.0782
     60 H24        -1.0663   -3.1924   -2.9213 H         1 <0>         0.0651
     61 H25         0.1761   -2.3211   -3.8516 H         1 <0>         0.0793
@<TRIPOS>BOND
     1    1    2 1
     2    1   37 1
     3    1   38 1
     4    1   39 1
     5    2    7 ar
     6    2    3 ar
     7    3    4 ar
     8    3   40 1
     9    4    5 ar
    10    4   41 1
    11    5    6 ar
    12    5    8 1
    13    6    7 ar
    14    6   42 1
    15    7   43 1
    16    8   16 1
    17    8    9 1
    18    9   10 2
    19   10   15 ar
    20   10   11 ar
    21   11   12 ar
    22   11   44 1
    23   12   13 ar
    24   12   36 1
    25   13   14 ar
    26   13   17 1
    27   14   15 ar
    28   14   45 1
    29   15   16 2
    30   17   18 1
    31   17   46 1
    32   18   19 2
    33   18   20 1
    34   20   21 am
    35   20   47 1
    36   21   22 2
    37   21   23 1
    38   23   24 1
    39   23   30 1
    40   23   48 1
    41   24   29 ar
    42   24   25 ar
    43   25   26 ar
    44   25   49 1
    45   26   27 ar
    46   26   50 1
    47   27   28 ar
    48   27   51 1
    49   28   29 ar
    50   28   52 1
    51   29   53 1
    52   30   35 ar
    53   30   31 ar
    54   31   32 ar
    55   31   54 1
    56   32   33 ar
    57   32   55 1
    58   33   34 ar
    59   33   56 1
    60   34   35 ar
    61   34   57 1
    62   35   58 1
    63   36   59 1
    64   36   60 1
    65   36   61 1
