@<TRIPOS>MOLECULE
ZINC00938462
   54    57     0     0     0
SMALL
USER_CHARGES
methyl 6-methyl-2-[2-[9-oxo-3-(trifluoromethyl)-7-thia-10-azabicyclo[4.4.0]deca-2,4,11-trien-8-yl]acetyl]amino-4,5,6,7-tetrahydrobenzothiophene-3-carboxylate
@<TRIPOS>ATOM
      1 C1         -1.3966   -0.5377    0.3179 C.3       1 <0>        -0.1476
      2 C2          0.0021   -0.0041    0.0020 C.3       1 <0>        -0.0876
      3 H1          0.3158   -0.3598   -0.9794 H         1 <0>         0.0767
      4 C3          0.9921   -0.4897    1.0647 C.3       1 <0>        -0.1132
      5 C4          2.4229   -0.1727    0.6263 C.3       1 <0>        -0.0631
      6 C5          2.5091    1.3051    0.2652 C.2       1 <0>        -0.0624
      7 C6          1.3961    2.0223   -0.0004 C.2       1 <0>        -0.2046
      8 S1          1.9832    3.6534   -0.3601 S.3       1 <0>         0.2501
      9 C7          3.6840    3.3889   -0.1616 C.2       1 <0>         0.0778
     10 C8          3.7574    2.0447    0.1792 C.2       1 <0>        -0.2054
     11 C9          5.0441    1.3965    0.4411 C.2       1 <0>         0.5294
     12 O1          5.6583    0.8739   -0.4694 O.2       1 <0>        -0.4923
     13 O2          5.5480    1.3789    1.6921 O.3       1 <0>        -0.3515
     14 C10         6.8279    0.7188    1.8780 C.3       1 <0>         0.0307
     15 N1          4.7198    4.2985   -0.3068 N.am      1 <0>        -0.6186
     16 C11         4.4528    5.5754   -0.6455 C.2       1 <0>         0.5181
     17 O3          3.3063    5.9286   -0.8232 O.2       1 <0>        -0.4761
     18 C12         5.5790    6.5643   -0.8033 C.3       1 <0>        -0.1291
     19 C13         5.0078    7.9305   -1.1881 C.3       1 <0>        -0.0884
     20 H2          4.3963    7.8325   -2.0851 H         1 <0>         0.1673
     21 C14         6.1350    8.8975   -1.4416 C.2       1 <0>         0.5301
     22 O4          6.4761    9.0981   -2.5882 O.2       1 <0>        -0.4944
     23 N2          6.7739    9.5414   -0.4703 N.am      1 <0>        -0.6515
     24 C15         6.4531    9.5314    0.8839 C.ar      1 <0>         0.1570
     25 C16         7.4033    9.9516    1.8096 C.ar      1 <0>        -0.0911
     26 C17         7.1166    9.9309    3.1601 C.ar      1 <0>        -0.1469
     27 C18         5.8831    9.4948    3.6084 C.ar      1 <0>        -0.0752
     28 C19         4.9276    9.0784    2.6996 C.ar      1 <0>        -0.0556
     29 C20         5.2098    9.0987    1.3437 C.ar      1 <0>        -0.1200
     30 S2          3.9923    8.5751    0.1767 S.3       1 <0>        -0.0194
     31 C21         8.1549   10.3872    4.1524 C.3       1 <0>         0.5099
     32 F1          8.0112   11.7601    4.3797 F         1 <0>        -0.1716
     33 F2          7.9853    9.6950    5.3563 F         1 <0>        -0.1721
     34 F3          9.4320   10.1300    3.6426 F         1 <0>        -0.1748
     35 C22        -0.0187    1.5314    0.0105 C.3       1 <0>        -0.0312
     36 H3         -2.1001   -0.1807   -0.4342 H         1 <0>         0.0583
     37 H4         -1.3797   -1.6275    0.3115 H         1 <0>         0.0587
     38 H5         -1.7065   -0.1850    1.3016 H         1 <0>         0.0576
     39 H6          0.7835    0.0115    2.0099 H         1 <0>         0.0689
     40 H7          0.8836   -1.5664    1.1955 H         1 <0>         0.0720
     41 H8          3.1118   -0.3902    1.4425 H         1 <0>         0.0738
     42 H9          2.6819   -0.7789   -0.2418 H         1 <0>         0.0798
     43 H10         7.1176    0.7767    2.9272 H         1 <0>         0.1050
     44 H11         6.7439   -0.3267    1.5814 H         1 <0>         0.0658
     45 H12         7.5829    1.2109    1.2649 H         1 <0>         0.0634
     46 H13         5.6368    4.0160   -0.1646 H         1 <0>         0.4196
     47 H14         6.1222    6.6496    0.1378 H         1 <0>         0.1113
     48 H15         6.2572    6.2210   -1.5845 H         1 <0>         0.1252
     49 H16         7.5420   10.0729   -0.7320 H         1 <0>         0.4191
     50 H17         8.3694   10.2950    1.4703 H         1 <0>         0.1479
     51 H18         5.6667    9.4789    4.6664 H         1 <0>         0.1497
     52 H19         3.9631    8.7382    3.0465 H         1 <0>         0.1521
     53 H20        -0.5409    1.8964   -0.8740 H         1 <0>         0.0828
     54 H21        -0.5239    1.8868    0.9086 H         1 <0>         0.0857
@<TRIPOS>BOND
     1    1    2 1
     2    1   36 1
     3    1   37 1
     4    1   38 1
     5    2    3 1
     6    2   35 1
     7    2    4 1
     8    4    5 1
     9    4   39 1
    10    4   40 1
    11    5    6 1
    12    5   41 1
    13    5   42 1
    14    6   10 1
    15    6    7 2
    16    7    8 1
    17    7   35 1
    18    8    9 1
    19    9   10 2
    20    9   15 1
    21   10   11 1
    22   11   12 2
    23   11   13 1
    24   13   14 1
    25   14   43 1
    26   14   44 1
    27   14   45 1
    28   15   16 am
    29   15   46 1
    30   16   17 2
    31   16   18 1
    32   18   19 1
    33   18   47 1
    34   18   48 1
    35   19   20 1
    36   19   30 1
    37   19   21 1
    38   21   22 2
    39   21   23 am
    40   23   24 1
    41   23   49 1
    42   24   29 ar
    43   24   25 ar
    44   25   26 ar
    45   25   50 1
    46   26   27 ar
    47   26   31 1
    48   27   28 ar
    49   27   51 1
    50   28   29 ar
    51   28   52 1
    52   29   30 1
    53   31   32 1
    54   31   33 1
    55   31   34 1
    56   35   53 1
    57   35   54 1
