@<TRIPOS>MOLECULE
ZINC00083749
   32    35     0     0     0
SMALL
USER_CHARGES
8-(1H-benzoimidazol-2-ylsulfanylmethyl)-3-chloro-1,7-diazabicyclo[4.3.0]nona-2,4,6,8-tetraene
@<TRIPOS>ATOM
      1 C1         -1.2158    1.7509    0.0173 C.ar      1 <0>        -0.0995
      2 C2         -1.2433    3.1376    0.0301 C.ar      1 <0>        -0.1247
      3 C3         -0.0710    3.8598    0.0232 C.ar      1 <0>        -0.0658
      4 C4          1.1558    3.1913    0.0082 C.ar      1 <0>         0.0557
      5 C5          1.1777    1.7869    0.0004 C.ar      1 <0>         0.0557
      6 C6         -0.0126    1.0758    0.0080 C.ar      1 <0>        -0.1114
      7 N1          2.5141    1.4221   -0.0139 N.pl3     1 <0>        -0.5874
      8 H1          2.8743    0.4893   -0.0222 H         1 <0>         0.4328
      9 C7          3.2483    2.5745   -0.0145 C.2       1 <0>         0.2618
     10 N2          2.4477    3.6120   -0.0014 N.2       1 <0>        -0.4917
     11 S1          5.0084    2.6537   -0.0303 S.3       1 <0>         0.0116
     12 C8          5.2423    4.4485   -0.0227 C.3       1 <0>        -0.0159
     13 C9          6.7161    4.7631   -0.0346 C.2       1 <0>         0.0640
     14 C10         7.4959    4.9270    1.0565 C.2       1 <0>        -0.0594
     15 N3          8.7620    5.1947    0.6119 N.pl3     1 <0>        -0.3576
     16 C11         9.9365    5.4409    1.2631 C.2       1 <0>         0.0689
     17 C12        11.0683    5.6885    0.5691 C.2       1 <0>        -0.0559
     18 C13        11.0504    5.6957   -0.8362 C.2       1 <0>        -0.0958
     19 C14         9.8866    5.4518   -1.4964 C.2       1 <0>        -0.0579
     20 C15         8.7141    5.1952   -0.7578 C.2       1 <0>         0.2249
     21 N4          7.4676    4.9320   -1.1250 N.2       1 <0>        -0.4661
     22 Cl1        12.5512    5.9998    1.4164 Cl        1 <0>        -0.0297
     23 H2         -2.1424    1.1960    0.0187 H         1 <0>         0.1323
     24 H3         -2.1914    3.6548    0.0416 H         1 <0>         0.1320
     25 H4         -0.0997    4.9394    0.0296 H         1 <0>         0.1308
     26 H5          0.0021   -0.0041    0.0020 H         1 <0>         0.1244
     27 H6          4.7715    4.8800   -0.9061 H         1 <0>         0.1187
     28 H7          4.7880    4.8704    0.8738 H         1 <0>         0.1171
     29 H8          7.1797    4.8571    2.0868 H         1 <0>         0.1923
     30 H9          9.9607    5.4376    2.3428 H         1 <0>         0.1751
     31 H10        11.9567    5.8936   -1.3893 H         1 <0>         0.1561
     32 H11         9.8612    5.4545   -2.5761 H         1 <0>         0.1644
@<TRIPOS>BOND
     1    1    6 ar
     2    1    2 ar
     3    1   23 1
     4    2    3 ar
     5    2   24 1
     6    3    4 ar
     7    3   25 1
     8    4   10 1
     9    4    5 ar
    10    5    6 ar
    11    5    7 1
    12    6   26 1
    13    7    8 1
    14    7    9 1
    15    9   10 2
    16    9   11 1
    17   11   12 1
    18   12   13 1
    19   12   27 1
    20   12   28 1
    21   13   21 1
    22   13   14 2
    23   14   15 1
    24   14   29 1
    25   15   20 1
    26   15   16 1
    27   16   17 2
    28   16   30 1
    29   17   18 1
    30   17   22 1
    31   18   19 2
    32   18   31 1
    33   19   20 1
    34   19   32 1
    35   20   21 2
