@<TRIPOS>MOLECULE
ZINC20373344
   52    54     0     0     0
SMALL
USER_CHARGES
(3S)-N-cycloheptyl-1-(3,5-dimethylphenyl)-5-oxo-pyrrolidine-3-carboxamide
@<TRIPOS>ATOM
      1 C1          3.0807    7.0635   -2.7242 C.3       1 <0>        -0.1167
      2 C2          3.1878    5.9190   -1.7497 C.ar      1 <0>        -0.0542
      3 C3          4.2466    5.8647   -0.8619 C.ar      1 <0>        -0.1462
      4 C4          4.3480    4.8167    0.0346 C.ar      1 <0>        -0.0552
      5 C5          3.3914    3.8205    0.0457 C.ar      1 <0>        -0.1605
      6 C6          2.3271    3.8720   -0.8449 C.ar      1 <0>         0.1740
      7 C7          2.2315    4.9225   -1.7481 C.ar      1 <0>        -0.1644
      8 N1          1.3563    2.8644   -0.8362 N.am      1 <0>        -0.5525
      9 C8          1.4296    1.6509   -0.0139 C.3       1 <0>         0.1099
     10 C9         -0.0051    1.0785    0.0048 C.3       1 <0>        -0.1245
     11 H1         -0.0611   -0.0159    0.0999 H         1 <0>         0.1331
     12 C10        -0.5871    1.6432   -1.3118 C.3       1 <0>        -0.1421
     13 C11         0.2365    2.8836   -1.5795 C.2       1 <0>         0.5190
     14 O1         -0.0691    3.7669   -2.3524 O.2       1 <0>        -0.5051
     15 C12        -0.7735    1.5877    1.1971 C.2       1 <0>         0.5119
     16 O2         -0.2264    2.3004    2.0117 O.2       1 <0>        -0.5296
     17 N2         -2.0685    1.2510    1.3581 N.am      1 <0>        -0.7370
     18 C13        -2.8154    1.7460    2.5171 C.3       1 <0>         0.1531
     19 C14        -2.5391    0.8223    3.7210 C.3       1 <0>        -0.1185
     20 C15        -2.8589    1.5761    4.9844 C.3       1 <0>        -0.1164
     21 C16        -4.2941    1.3121    5.4786 C.3       1 <0>        -0.1201
     22 C17        -5.3255    1.2901    4.3344 C.3       1 <0>        -0.1241
     23 C18        -5.0868    2.3785    3.3231 C.3       1 <0>        -0.1168
     24 C19        -4.2294    1.8031    2.1772 C.3       1 <0>        -0.1330
     25 C20         5.5033    4.7617    1.0007 C.3       1 <0>        -0.1165
     26 H2          3.9260    7.7516   -2.5760 H         1 <0>         0.0669
     27 H3          2.1361    7.6014   -2.5556 H         1 <0>         0.0715
     28 H4          3.1017    6.6729   -3.7523 H         1 <0>         0.0715
     29 H5          4.9957    6.6426   -0.8683 H         1 <0>         0.1224
     30 H6          3.4708    3.0027    0.7465 H         1 <0>         0.1246
     31 H7          1.4076    4.9628   -2.4452 H         1 <0>         0.1532
     32 H8          2.1389    0.9430   -0.4674 H         1 <0>         0.0918
     33 H9          1.7707    1.9139    0.9983 H         1 <0>         0.1058
     34 H10        -0.4788    0.8953   -2.1111 H         1 <0>         0.1247
     35 H11        -1.6526    1.8776   -1.1710 H         1 <0>         0.1120
     36 H12        -2.5647    0.6045    0.6193 H         1 <0>         0.4200
     37 H13        -2.5183    2.7811    2.7414 H         1 <0>         0.0830
     38 H14        -3.1723   -0.0742    3.6482 H         1 <0>         0.0685
     39 H15        -1.4802    0.5245    3.7192 H         1 <0>         0.0664
     40 H16        -2.1640    1.2696    5.7801 H         1 <0>         0.0627
     41 H17        -2.7554    2.6561    4.8032 H         1 <0>         0.0634
     42 H18        -4.3338    0.3365    5.9852 H         1 <0>         0.0598
     43 H19        -4.5908    2.1033    6.1829 H         1 <0>         0.0609
     44 H20        -5.2722    0.3239    3.8113 H         1 <0>         0.0615
     45 H21        -6.3353    1.4277    4.7483 H         1 <0>         0.0608
     46 H22        -6.0515    2.7311    2.9293 H         1 <0>         0.0683
     47 H23        -4.5587    3.2156    3.8030 H         1 <0>         0.0681
     48 H24        -4.3686    2.4439    1.2941 H         1 <0>         0.0676
     49 H25        -4.5945    0.7894    1.9558 H         1 <0>         0.0680
     50 H26         5.4138    3.8629    1.6285 H         1 <0>         0.0654
     51 H27         5.4905    5.6575    1.6389 H         1 <0>         0.0720
     52 H28         6.4488    4.7245    0.4398 H         1 <0>         0.0719
@<TRIPOS>BOND
     1    1    2 1
     2    1   26 1
     3    1   27 1
     4    1   28 1
     5    2    7 ar
     6    2    3 ar
     7    3    4 ar
     8    3   29 1
     9    4    5 ar
    10    4   25 1
    11    5    6 ar
    12    5   30 1
    13    6    7 ar
    14    6    8 1
    15    7   31 1
    16    8   13 am
    17    8    9 1
    18    9   10 1
    19    9   32 1
    20    9   33 1
    21   10   11 1
    22   10   12 1
    23   10   15 1
    24   12   13 1
    25   12   34 1
    26   12   35 1
    27   13   14 2
    28   15   16 2
    29   15   17 am
    30   17   18 1
    31   17   36 1
    32   18   24 1
    33   18   19 1
    34   18   37 1
    35   19   20 1
    36   19   38 1
    37   19   39 1
    38   20   21 1
    39   20   40 1
    40   20   41 1
    41   21   22 1
    42   21   42 1
    43   21   43 1
    44   22   23 1
    45   22   44 1
    46   22   45 1
    47   23   24 1
    48   23   46 1
    49   23   47 1
    50   24   48 1
    51   24   49 1
    52   25   50 1
    53   25   51 1
    54   25   52 1
