@<TRIPOS>MOLECULE
ZINC02369337
   44    46     0     0     0
SMALL
USER_CHARGES
2-bromo-4,7,7-trimethyl-3-oxo-N-(p-tolyl)norbornane-1-carboxamide
@<TRIPOS>ATOM
      1 C1         -7.0707   -3.3804    1.2572 C.3       1 <0>        -0.1150
      2 C2         -5.8339   -2.6121    0.8682 C.ar      1 <0>        -0.0981
      3 C3         -5.9525   -1.3885    0.2351 C.ar      1 <0>        -0.1003
      4 C4         -4.8210   -0.6816   -0.1219 C.ar      1 <0>        -0.1394
      5 C5         -3.5632   -1.2010    0.1553 C.ar      1 <0>         0.1358
      6 C6         -3.4476   -2.4327    0.7862 C.ar      1 <0>        -0.1147
      7 C7         -4.5830   -3.1321    1.1457 C.ar      1 <0>        -0.1007
      8 N1         -2.4149   -0.4875   -0.2054 N.am      1 <0>        -0.6682
      9 C8         -1.3077   -0.5612    0.5595 C.2       1 <0>         0.5493
     10 O1         -1.3352   -1.1679    1.6093 O.2       1 <0>        -0.4960
     11 C9         -0.0355    0.1103    0.1103 C.3       1 <0>        -0.0881
     12 C10         0.5791   -0.4091   -1.2259 C.3       1 <0>        -0.1307
     13 C11         2.0447    0.0823   -1.1936 C.3       1 <0>        -0.1084
     14 C12         2.1741    0.8424    0.1617 C.3       1 <0>        -0.1091
     15 C13         1.2072   -0.0030    1.0634 C.3       1 <0>        -0.0209
     16 C14         0.9557    0.6618    2.4182 C.3       1 <0>        -0.1512
     17 C15         1.6829   -1.4488    1.2191 C.3       1 <0>        -0.1399
     18 C16         1.3453    2.1201   -0.0317 C.2       1 <0>         0.3861
     19 O2          1.7560    3.2514   -0.1308 O.2       1 <0>        -0.3998
     20 C17        -0.1039    1.6576   -0.0727 C.3       1 <0>        -0.0974
     21 H1         -0.6490    2.0567    0.6646 H         1 <0>         0.1233
     22 Br1        -0.9163    2.1062   -1.8058 Br        1 <0>        -0.1006
     23 C18         3.5995    1.0442    0.6799 C.3       1 <0>        -0.1195
     24 H2         -7.3629   -4.0374    0.4380 H         1 <0>         0.0708
     25 H3         -6.8634   -3.9772    2.1454 H         1 <0>         0.0668
     26 H4         -7.8804   -2.6822    1.4694 H         1 <0>         0.0664
     27 H5         -6.9309   -0.9851    0.0197 H         1 <0>         0.1272
     28 H6         -4.9142    0.2744   -0.6157 H         1 <0>         0.1254
     29 H7         -2.4708   -2.8413    0.9995 H         1 <0>         0.1344
     30 H8         -4.4938   -4.0880    1.6403 H         1 <0>         0.1264
     31 H9         -2.4158    0.0602   -1.0060 H         1 <0>         0.4104
     32 H10         0.5436   -1.4979   -1.2633 H         1 <0>         0.0890
     33 H11         0.0528    0.0193   -2.0788 H         1 <0>         0.0942
     34 H12         2.7304   -0.7645   -1.2215 H         1 <0>         0.0938
     35 H13         2.2385    0.7552   -2.0289 H         1 <0>         0.0792
     36 H14         0.1081    0.1813    2.9070 H         1 <0>         0.0813
     37 H15         1.8423    0.5585    3.0438 H         1 <0>         0.0720
     38 H16         0.7374    1.7193    2.2691 H         1 <0>         0.0481
     39 H17         1.9656   -1.8453    0.2440 H         1 <0>         0.0647
     40 H18         2.5440   -1.4781    1.8868 H         1 <0>         0.0670
     41 H19         0.8780   -2.0530    1.6376 H         1 <0>         0.0759
     42 H20         4.1672    1.6349   -0.0390 H         1 <0>         0.0697
     43 H21         3.5680    1.5672    1.6357 H         1 <0>         0.0665
     44 H22         4.0787    0.0742    0.8122 H         1 <0>         0.0743
@<TRIPOS>BOND
     1    1    2 1
     2    1   24 1
     3    1   25 1
     4    1   26 1
     5    2    7 ar
     6    2    3 ar
     7    3    4 ar
     8    3   27 1
     9    4    5 ar
    10    4   28 1
    11    5    6 ar
    12    5    8 1
    13    6    7 ar
    14    6   29 1
    15    7   30 1
    16    8    9 am
    17    8   31 1
    18    9   10 2
    19    9   11 1
    20   11   15 1
    21   11   20 1
    22   11   12 1
    23   12   13 1
    24   12   32 1
    25   12   33 1
    26   13   14 1
    27   13   34 1
    28   13   35 1
    29   14   15 1
    30   14   18 1
    31   14   23 1
    32   15   16 1
    33   15   17 1
    34   16   36 1
    35   16   37 1
    36   16   38 1
    37   17   39 1
    38   17   40 1
    39   17   41 1
    40   18   19 2
    41   18   20 1
    42   20   21 1
    43   20   22 1
    44   23   42 1
    45   23   43 1
    46   23   44 1
