@<TRIPOS>MOLECULE
ZINC03008315
   44    47     0     0     0
SMALL
USER_CHARGES
N-[7-(2,3-dimethylphenyl)-3-thia-6,7-diazabicyclo[3.3.0]octa-5,8-dien-8-yl]-2-fluoro-benzamide
@<TRIPOS>ATOM
      1 C1         -0.6540    2.0695    1.8722 C.3       1 <0>        -0.1190
      2 C2          0.2870    1.3492    0.9412 C.ar      1 <0>        -0.0701
      3 C3          1.1159    2.0714    0.1021 C.ar      1 <0>        -0.1064
      4 C4          1.9765    1.4141   -0.7576 C.ar      1 <0>        -0.1022
      5 C5          2.0107    0.0333   -0.7807 C.ar      1 <0>        -0.1267
      6 C6          1.1799   -0.6944    0.0604 C.ar      1 <0>         0.1352
      7 C7          0.3166   -0.0313    0.9227 C.ar      1 <0>        -0.0627
      8 C8         -0.5872   -0.8175    1.8370 C.3       1 <0>        -0.1131
      9 N1          1.2120   -2.0953    0.0389 N.pl3     1 <0>        -0.3150
     10 C9          2.3239   -2.8706    0.0804 C.2       1 <0>         0.3305
     11 C10         1.9162   -4.1848    0.0425 C.2       1 <0>        -0.2353
     12 C11         0.5335   -4.1973   -0.0326 C.2       1 <0>         0.0705
     13 N2          0.1055   -2.9431   -0.0350 N.2       1 <0>        -0.2510
     14 C12        -0.1388   -5.5679   -0.0923 C.3       1 <0>         0.0189
     15 S1          1.2242   -6.6799    0.4464 S.3       1 <0>        -0.2785
     16 C13         2.6166   -5.5419    0.0577 C.3       1 <0>         0.0491
     17 N3          3.6402   -2.4189    0.1520 N.am      1 <0>        -0.6467
     18 C14         4.6385   -3.1685   -0.3560 C.2       1 <0>         0.5666
     19 O1          4.3995   -4.2686   -0.8153 O.2       1 <0>        -0.4809
     20 C15         6.0224   -2.6538   -0.3545 C.ar      1 <0>        -0.1776
     21 C16         6.3190   -1.4394    0.2686 C.ar      1 <0>        -0.0574
     22 C17         7.6140   -0.9669    0.2704 C.ar      1 <0>        -0.1357
     23 C18         8.6195   -1.6868   -0.3524 C.ar      1 <0>        -0.0547
     24 C19         8.3352   -2.8869   -0.9763 C.ar      1 <0>        -0.1619
     25 C20         7.0417   -3.3768   -0.9821 C.ar      1 <0>         0.1686
     26 F1          6.7639   -4.5497   -1.5923 F         1 <0>        -0.1107
     27 H1         -0.1558    2.2489    2.8250 H         1 <0>         0.0760
     28 H2         -0.9450    3.0220    1.4293 H         1 <0>         0.0726
     29 H3         -1.5417    1.4585    2.0358 H         1 <0>         0.0731
     30 H4          1.0910    3.1510    0.1184 H         1 <0>         0.1330
     31 H5          2.6228    1.9808   -1.4114 H         1 <0>         0.1358
     32 H6          2.6829   -0.4795   -1.4527 H         1 <0>         0.1269
     33 H7         -1.5635   -0.9376    1.3674 H         1 <0>         0.0810
     34 H8         -0.1507   -1.7986    2.0238 H         1 <0>         0.0679
     35 H9         -0.7013   -0.2849    2.7812 H         1 <0>         0.0709
     36 H10        -0.9804   -5.6197    0.5985 H         1 <0>         0.1201
     37 H11        -0.4559   -5.8027   -1.1083 H         1 <0>         0.1152
     38 H12         3.3790   -5.5785    0.8358 H         1 <0>         0.0984
     39 H13         3.0464   -5.7704   -0.9176 H         1 <0>         0.1171
     40 H14         3.8380   -1.5649    0.5673 H         1 <0>         0.4137
     41 H15         5.5360   -0.8738    0.7516 H         1 <0>         0.1332
     42 H16         7.8444   -0.0300    0.7557 H         1 <0>         0.1405
     43 H17         9.6310   -1.3085   -0.3510 H         1 <0>         0.1428
     44 H18         9.1244   -3.4429   -1.4604 H         1 <0>         0.1478
@<TRIPOS>BOND
     1    1    2 1
     2    1   27 1
     3    1   28 1
     4    1   29 1
     5    2    7 ar
     6    2    3 ar
     7    3    4 ar
     8    3   30 1
     9    4    5 ar
    10    4   31 1
    11    5    6 ar
    12    5   32 1
    13    6    7 ar
    14    6    9 1
    15    7    8 1
    16    8   33 1
    17    8   34 1
    18    8   35 1
    19    9   13 1
    20    9   10 1
    21   10   11 2
    22   10   17 1
    23   11   16 1
    24   11   12 1
    25   12   13 2
    26   12   14 1
    27   14   15 1
    28   14   36 1
    29   14   37 1
    30   15   16 1
    31   16   38 1
    32   16   39 1
    33   17   18 am
    34   17   40 1
    35   18   19 2
    36   18   20 1
    37   20   25 ar
    38   20   21 ar
    39   21   22 ar
    40   21   41 1
    41   22   23 ar
    42   22   42 1
    43   23   24 ar
    44   23   43 1
    45   24   25 ar
    46   24   44 1
    47   25   26 1
