@<TRIPOS>MOLECULE
ZINC20082619
   69    73     0     0     0
SMALL
USER_CHARGES
3-[(R)-[(2-chlorophenyl)methyl-(2-furylmethyl)amino]-[1-(1,1-dimethylpropyl)tetrazol-5-yl]methyl]-7-methyl-1H-quinolin-2-one
@<TRIPOS>ATOM
      1 C1         -3.0200    7.9174    4.0119 C.3       1 <0>        -0.1567
      2 C2         -2.7484    7.2442    2.6651 C.3       1 <0>        -0.1183
      3 C3         -1.6577    6.1848    2.8352 C.3       1 <0>         0.1704
      4 C4         -2.1207    5.1340    3.8464 C.3       1 <0>        -0.1815
      5 C5         -0.3757    6.8492    3.3410 C.3       1 <0>        -0.1762
      6 N1         -1.3976    5.5402    1.5456 N.pl3     1 <0>        -0.2937
      7 C6         -0.5742    4.4988    1.3240 C.2       1 <0>         0.1877
      8 N2         -0.6300    4.2417    0.0400 N.2       1 <0>        -0.2264
      9 N3         -1.4511    5.0764   -0.4977 N.2       1 <0>        -0.0883
     10 N4         -1.9145    5.8644    0.4088 N.2       1 <0>        -0.0939
     11 C7          0.2557    3.7734    2.3517 C.3       1 <0>         0.2353
     12 H1          0.3604    4.3889    3.2574 H         1 <0>         0.0764
     13 C8         -0.3997    2.4593    2.6901 C.2       1 <0>        -0.1864
     14 C9         -0.8276    2.2238    3.9550 C.2       1 <0>        -0.0121
     15 C10        -1.4647    0.9390    4.2499 C.ar      1 <0>        -0.1483
     16 C11        -1.9317    0.6408    5.5344 C.ar      1 <0>        -0.0462
     17 C12        -2.5172   -0.5690    5.7782 C.ar      1 <0>        -0.1570
     18 C13        -2.6540   -1.5052    4.7621 C.ar      1 <0>        -0.0216
     19 C14        -2.2013   -1.2330    3.4893 C.ar      1 <0>        -0.1726
     20 C15        -1.6012   -0.0078    3.2174 C.ar      1 <0>         0.2088
     21 N5         -1.1398    0.2912    1.9532 N.am      1 <0>        -0.6493
     22 H2         -1.2430   -0.4443    1.1418 H         1 <0>         0.4419
     23 C16        -0.5606    1.4759    1.6906 C.2       1 <0>         0.5288
     24 O1         -0.1650    1.7064    0.5610 O.2       1 <0>        -0.4633
     25 C17        -3.3038   -2.8332    5.0543 C.3       1 <0>        -0.1259
     26 N6          1.5987    3.5257    1.8103 N.3       1 <0>        -0.4937
     27 C18         2.3232    2.5438    2.6282 C.3       1 <0>         0.0931
     28 C19         3.6035    2.1580    1.9332 C.ar      1 <0>        -0.0682
     29 C20         3.6272    1.0684    1.0828 C.ar      1 <0>        -0.0743
     30 C21         4.8004    0.7170    0.4420 C.ar      1 <0>        -0.1110
     31 C22         5.9531    1.4492    0.6584 C.ar      1 <0>        -0.1038
     32 C23         5.9318    2.5355    1.5123 C.ar      1 <0>        -0.1094
     33 C24         4.7565    2.8907    2.1504 C.ar      1 <0>        -0.0364
     34 Cl1         4.7292    4.2549    3.2237 Cl        1 <0>        -0.0698
     35 C25         2.3587    4.7775    1.6944 C.3       1 <0>         0.1173
     36 C26         1.8236    5.5850    0.5399 C.2       1 <0>         0.0010
     37 C27         1.3178    6.8290    0.6176 C.2       1 <0>        -0.2283
     38 C28         0.9387    7.1996   -0.6931 C.2       1 <0>        -0.2185
     39 C29         1.2355    6.1599   -1.4933 C.2       1 <0>        -0.0168
     40 O2          1.7712    5.1848   -0.7410 O.3       1 <0>        -0.1384
     41 H3         -3.8042    8.6791    3.8896 H         1 <0>         0.0673
     42 H4         -2.0983    8.3952    4.3755 H         1 <0>         0.0628
     43 H5         -3.3528    7.1620    4.7389 H         1 <0>         0.0622
     44 H6         -3.6701    6.7664    2.3015 H         1 <0>         0.0784
     45 H7         -2.4156    7.9996    1.9381 H         1 <0>         0.0825
     46 H8         -1.3365    4.3723    3.9687 H         1 <0>         0.0705
     47 H9         -3.0424    4.6563    3.4827 H         1 <0>         0.0726
     48 H10        -2.3160    5.6180    4.8147 H         1 <0>         0.0965
     49 H11         0.4084    6.0875    3.4633 H         1 <0>         0.0631
     50 H12        -0.5710    7.3331    4.3093 H         1 <0>         0.0950
     51 H13        -0.0428    7.6047    2.6140 H         1 <0>         0.0802
     52 H14        -0.7048    2.9691    4.7269 H         1 <0>         0.1437
     53 H15        -1.8290    1.3638    6.3302 H         1 <0>         0.1340
     54 H16        -2.8774   -0.7991    6.7700 H         1 <0>         0.1298
     55 H17        -2.3124   -1.9680    2.7058 H         1 <0>         0.1339
     56 H18        -3.3249   -3.4407    4.1375 H         1 <0>         0.0696
     57 H19        -4.3320   -2.6682    5.4086 H         1 <0>         0.0777
     58 H20        -2.7287   -3.3600    5.8301 H         1 <0>         0.0781
     59 H21         2.5566    2.9843    3.6088 H         1 <0>         0.0551
     60 H22         1.6978    1.6497    2.7674 H         1 <0>         0.0922
     61 H23         2.7281    0.4936    0.9166 H         1 <0>         0.1319
     62 H24         4.8176   -0.1324   -0.2249 H         1 <0>         0.1305
     63 H25         6.8703    1.1719    0.1602 H         1 <0>         0.1329
     64 H26         6.8324    3.1070    1.6818 H         1 <0>         0.1342
     65 H27         2.2569    5.3557    2.6246 H         1 <0>         0.0641
     66 H28         3.4201    4.5473    1.5201 H         1 <0>         0.1128
     67 H29         1.2237    7.4310    1.5093 H         1 <0>         0.1382
     68 H30         0.4953    8.1373   -0.9940 H         1 <0>         0.1397
     69 H31         1.0712    6.1167   -2.5599 H         1 <0>         0.1959
@<TRIPOS>BOND
     1    1    2 1
     2    1   41 1
     3    1   42 1
     4    1   43 1
     5    2    3 1
     6    2   44 1
     7    2   45 1
     8    3    4 1
     9    3    5 1
    10    3    6 1
    11    4   46 1
    12    4   47 1
    13    4   48 1
    14    5   49 1
    15    5   50 1
    16    5   51 1
    17    6   10 1
    18    6    7 1
    19    7    8 2
    20    7   11 1
    21    8    9 1
    22    9   10 2
    23   11   12 1
    24   11   13 1
    25   11   26 1
    26   13   23 1
    27   13   14 2
    28   14   15 1
    29   14   52 1
    30   15   20 ar
    31   15   16 ar
    32   16   17 ar
    33   16   53 1
    34   17   18 ar
    35   17   54 1
    36   18   19 ar
    37   18   25 1
    38   19   20 ar
    39   19   55 1
    40   20   21 1
    41   21   22 1
    42   21   23 am
    43   23   24 2
    44   25   56 1
    45   25   57 1
    46   25   58 1
    47   26   27 1
    48   26   35 1
    49   27   28 1
    50   27   59 1
    51   27   60 1
    52   28   33 ar
    53   28   29 ar
    54   29   30 ar
    55   29   61 1
    56   30   31 ar
    57   30   62 1
    58   31   32 ar
    59   31   63 1
    60   32   33 ar
    61   32   64 1
    62   33   34 1
    63   35   36 1
    64   35   65 1
    65   35   66 1
    66   36   40 1
    67   36   37 2
    68   37   38 1
    69   37   67 1
    70   38   39 2
    71   38   68 1
    72   39   40 1
    73   39   69 1
