@<TRIPOS>MOLECULE
ZINC00989384
   60    63     0     0     0
SMALL
USER_CHARGES
benzyl ethyl amino-bromo-oxo-propyl-BLAHdicarboxylate
@<TRIPOS>ATOM
      1 C1          3.9730    6.2991    3.9225 C.3       1 <0>        -0.1511
      2 C2          3.5298    5.6700    2.6002 C.3       1 <0>        -0.1245
      3 C3          2.0030    5.7026    2.5064 C.3       1 <0>        -0.0797
      4 C4          1.5664    5.0829    1.2039 C.2       1 <0>         0.1656
      5 C5          1.2125    3.7903    1.1887 C.2       1 <0>        -0.2152
      6 C6          0.7743    3.1276   -0.0848 C.3       1 <0>         0.1121
      7 C7         -0.7147    2.8892   -0.0731 C.ar      1 <0>        -0.1177
      8 C8         -1.8013    3.7307    0.0100 C.ar      1 <0>        -0.0121
      9 C9         -3.0835    3.2089   -0.0173 C.ar      1 <0>        -0.1097
     10 C10        -3.2676    1.8409   -0.1165 C.ar      1 <0>        -0.0483
     11 C11        -2.1807    0.9955   -0.1953 C.ar      1 <0>        -0.1306
     12 C12        -0.8874    1.5138   -0.1752 C.ar      1 <0>         0.1655
     13 N1          0.3524    0.8751   -0.2395 N.am      1 <0>        -0.6597
     14 C13         1.3759    1.7464   -0.1941 C.2       1 <0>         0.5289
     15 O1          2.5573    1.4748   -0.2334 O.2       1 <0>        -0.4561
     16 Br1        -4.5788    4.3613    0.0923 Br        1 <0>        -0.0415
     17 C14         1.1635    3.9612   -1.2719 C.2       1 <0>        -0.3576
     18 C15         1.5262    5.2613   -1.1104 C.2       1 <0>         0.4414
     19 O2          1.5457    5.8436    0.0998 O.3       1 <0>        -0.2245
     20 N2          1.8808    5.9963   -2.2098 N.pl3     1 <0>        -0.8198
     21 C16         1.1532    3.3945   -2.5557 C.2       1 <0>         0.5340
     22 O3          0.0975    3.2325   -3.1415 O.2       1 <0>        -0.4834
     23 O4          2.3137    3.0287   -3.1418 O.3       1 <0>        -0.3375
     24 C17         2.2287    2.4584   -4.4493 C.3       1 <0>         0.1041
     25 C18         3.6121    2.1150   -4.9385 C.ar      1 <0>        -0.0973
     26 C19         4.3446    3.0466   -5.6502 C.ar      1 <0>        -0.0966
     27 C20         5.6155    2.7333   -6.0948 C.ar      1 <0>        -0.1227
     28 C21         6.1499    1.4849   -5.8363 C.ar      1 <0>        -0.1083
     29 C22         5.4152    0.5513   -5.1295 C.ar      1 <0>        -0.1209
     30 C23         4.1464    0.8665   -4.6804 C.ar      1 <0>        -0.0918
     31 C24         1.2531    3.0399    2.3897 C.2       1 <0>         0.5258
     32 O5          0.2271    2.8234    3.0065 O.2       1 <0>        -0.4768
     33 O6          2.4295    2.5654    2.8493 O.3       1 <0>        -0.3371
     34 C25         2.3962    1.8170    4.0662 C.3       1 <0>         0.0575
     35 C26         3.8131    1.3655    4.4260 C.3       1 <0>        -0.1521
     36 H1          3.6282    7.3322    3.9670 H         1 <0>         0.0584
     37 H2          3.5459    5.7375    4.7533 H         1 <0>         0.0569
     38 H3          5.0607    6.2759    3.9894 H         1 <0>         0.0633
     39 H4          3.8745    4.6369    2.5557 H         1 <0>         0.0800
     40 H5          3.9569    6.2317    1.7694 H         1 <0>         0.0722
     41 H6          1.6582    6.7357    2.5508 H         1 <0>         0.1041
     42 H7          1.5758    5.1409    3.3371 H         1 <0>         0.0980
     43 H8         -1.6538    4.7979    0.0860 H         1 <0>         0.1324
     44 H9         -4.2676    1.4332   -0.1321 H         1 <0>         0.1435
     45 H10        -2.3324   -0.0710   -0.2724 H         1 <0>         0.1381
     46 H11         0.4629   -0.0858   -0.3126 H         1 <0>         0.4179
     47 H12         2.2198    6.8986   -2.1013 H         1 <0>         0.4161
     48 H13         1.7931    5.6146   -3.0972 H         1 <0>         0.4261
     49 H14         1.6214    1.5540   -4.4124 H         1 <0>         0.0752
     50 H15         1.7705    3.1762   -5.1297 H         1 <0>         0.0774
     51 H16         3.9254    4.0205   -5.8557 H         1 <0>         0.1229
     52 H17         6.1893    3.4625   -6.6473 H         1 <0>         0.1258
     53 H18         7.1413    1.2388   -6.1869 H         1 <0>         0.1251
     54 H19         5.8326   -0.4241   -4.9279 H         1 <0>         0.1260
     55 H20         3.5723    0.1371   -4.1282 H         1 <0>         0.1225
     56 H21         1.9998    2.4420    4.8664 H         1 <0>         0.0705
     57 H22         1.7579    0.9429    3.9378 H         1 <0>         0.0670
     58 H23         4.4514    2.2396    4.5544 H         1 <0>         0.0684
     59 H24         3.7878    0.7946    5.3543 H         1 <0>         0.0811
     60 H25         4.2095    0.7405    3.6258 H         1 <0>         0.0683
@<TRIPOS>BOND
     1    1    2 1
     2    1   36 1
     3    1   37 1
     4    1   38 1
     5    2    3 1
     6    2   39 1
     7    2   40 1
     8    3    4 1
     9    3   41 1
    10    3   42 1
    11    4   19 1
    12    4    5 2
    13    5    6 1
    14    5   31 1
    15    6   14 1
    16    6    7 1
    17    6   17 1
    18    7   12 ar
    19    7    8 ar
    20    8    9 ar
    21    8   43 1
    22    9   10 ar
    23    9   16 1
    24   10   11 ar
    25   10   44 1
    26   11   12 ar
    27   11   45 1
    28   12   13 1
    29   13   14 am
    30   13   46 1
    31   14   15 2
    32   17   18 2
    33   17   21 1
    34   18   19 1
    35   18   20 1
    36   20   47 1
    37   20   48 1
    38   21   22 2
    39   21   23 1
    40   23   24 1
    41   24   25 1
    42   24   49 1
    43   24   50 1
    44   25   30 ar
    45   25   26 ar
    46   26   27 ar
    47   26   51 1
    48   27   28 ar
    49   27   52 1
    50   28   29 ar
    51   28   53 1
    52   29   30 ar
    53   29   54 1
    54   30   55 1
    55   31   32 2
    56   31   33 1
    57   33   34 1
    58   34   35 1
    59   34   56 1
    60   34   57 1
    61   35   58 1
    62   35   59 1
    63   35   60 1
