@<TRIPOS>MOLECULE
ZINC01049967
   33    34     0     0     0
SMALL
USER_CHARGES
N-[(3-chloro-4-fluoro-phenyl)thiocarbamoyl]-3-methyl-benzamide
@<TRIPOS>ATOM
      1 C1         -2.3862    1.0889    1.7054 C.3       1 <0>        -0.1194
      2 C2         -1.1520    1.8337    1.2659 C.ar      1 <0>        -0.0870
      3 C3         -0.0251    1.1322    0.8745 C.ar      1 <0>        -0.0887
      4 C4          1.1103    1.8080    0.4646 C.ar      1 <0>        -0.1190
      5 C5          1.1277    3.1875    0.4482 C.ar      1 <0>        -0.0971
      6 C6         -0.0038    3.9013    0.8469 C.ar      1 <0>        -0.1335
      7 C7         -1.1462    3.2129    1.2599 C.ar      1 <0>        -0.0540
      8 C8          0.0077    5.3789    0.8324 C.2       1 <0>         0.5350
      9 O1         -0.9787    5.9977    1.1800 O.2       1 <0>        -0.3977
     10 N1          1.1123    6.0404    0.4337 N.am      1 <0>        -0.6374
     11 C9          1.1228    7.3880    0.4204 C.2       1 <0>         0.5079
     12 S1         -0.2669    8.2597    0.9102 S.2       1 <0>        -0.4722
     13 N2          2.2273    8.0494    0.0217 N.pl3     1 <0>        -0.6203
     14 C10         2.2097    9.4457   -0.0768 C.ar      1 <0>         0.1158
     15 C11         2.7523   10.0710   -1.1919 C.ar      1 <0>        -0.0828
     16 C12         2.7295   11.4484   -1.2900 C.ar      1 <0>        -0.1389
     17 C13         2.1760   12.2072   -0.2726 C.ar      1 <0>         0.1223
     18 C14         1.6391   11.5861    0.8436 C.ar      1 <0>        -0.0707
     19 C15         1.6549   10.2074    0.9428 C.ar      1 <0>        -0.0339
     20 Cl1         0.9457   12.5398    2.1178 Cl        1 <0>        -0.0371
     21 F1          2.1590   13.5546   -0.3686 F         1 <0>        -0.1220
     22 H1         -2.3427    0.9162    2.7808 H         1 <0>         0.0762
     23 H2         -3.2709    1.6796    1.4678 H         1 <0>         0.0723
     24 H3         -2.4377    0.1323    1.1856 H         1 <0>         0.0712
     25 H4         -0.0337    0.0523    0.8847 H         1 <0>         0.1313
     26 H5          1.9850    1.2545    0.1564 H         1 <0>         0.1327
     27 H6          2.0145    3.7138    0.1273 H         1 <0>         0.1215
     28 H7         -2.0249    3.7592    1.5695 H         1 <0>         0.1411
     29 H8          1.8997    5.5465    0.1562 H         1 <0>         0.4105
     30 H9          3.0344    7.5580   -0.1971 H         1 <0>         0.4116
     31 H10         3.1878    9.4801   -1.9840 H         1 <0>         0.1432
     32 H11         3.1477   11.9344   -2.1591 H         1 <0>         0.1528
     33 H12         1.2365    9.7233    1.8128 H         1 <0>         0.1662
@<TRIPOS>BOND
     1    1    2 1
     2    1   22 1
     3    1   23 1
     4    1   24 1
     5    2    7 ar
     6    2    3 ar
     7    3    4 ar
     8    3   25 1
     9    4    5 ar
    10    4   26 1
    11    5    6 ar
    12    5   27 1
    13    6    7 ar
    14    6    8 1
    15    7   28 1
    16    8    9 2
    17    8   10 am
    18   10   11 1
    19   10   29 1
    20   11   12 2
    21   11   13 1
    22   13   14 1
    23   13   30 1
    24   14   19 ar
    25   14   15 ar
    26   15   16 ar
    27   15   31 1
    28   16   17 ar
    29   16   32 1
    30   17   18 ar
    31   17   21 1
    32   18   19 ar
    33   18   20 1
    34   19   33 1
