@<TRIPOS>MOLECULE
ZINC03840951
   73    75     0     0     0
SMALL
USER_CHARGES
2-[(2-dimethylaminoacetyl)amino-hydroxy-dimethyl-BLAHyl]-N,N-diethyl-propanamide
@<TRIPOS>ATOM
      1 C1          4.1223   -3.0651   -4.0046 C.3       1 <0>        -0.1674
      2 C2          3.6266   -1.6893   -4.4544 C.3       1 <0>         0.1077
      3 N1          2.8349   -1.0810   -3.3822 N.am      1 <0>        -0.6127
      4 C3          1.3893   -1.3097   -3.3190 C.3       1 <0>         0.1012
      5 C4          0.6594   -0.1532   -4.0051 C.3       1 <0>        -0.1761
      6 C5          3.4366   -0.3109   -2.4541 C.2       1 <0>         0.5225
      7 O1          4.6160   -0.0472   -2.5569 O.2       1 <0>        -0.5308
      8 C6          2.6440    0.2225   -1.2887 C.3       1 <0>        -0.1136
      9 H1          1.6787   -0.2818   -1.2446 H         1 <0>         0.0898
     10 C7          3.4122   -0.0320    0.0098 C.3       1 <0>        -0.1459
     11 C8          2.4260    1.7265   -1.4658 C.3       1 <0>        -0.1047
     12 H2          1.9703    1.9137   -2.4381 H         1 <0>         0.0849
     13 C9          3.7720    2.4479   -1.3880 C.3       1 <0>        -0.1279
     14 C10         3.5634    3.9566   -1.5389 C.3       1 <0>        -0.1129
     15 C11         2.6586    4.4478   -0.3984 C.3       1 <0>        -0.0428
     16 C12         3.3040    4.0203    0.9325 C.3       1 <0>        -0.0414
     17 C13         2.2818    4.1005    2.0129 C.2       1 <0>        -0.2027
     18 C14         0.9350    4.2160    1.8801 C.2       1 <0>         0.0957
     19 N2          0.2381    4.2664    3.0123 N.2       1 <0>        -0.5151
     20 C15         0.8156    4.2097    4.1944 C.2       1 <0>         0.2395
     21 S1          2.4964    4.0714    3.7726 S.3       1 <0>         0.1659
     22 N3          0.2316    4.2501    5.4551 N.am      1 <0>        -0.5847
     23 C16         1.0031    4.1782    6.5578 C.2       1 <0>         0.5004
     24 O2          2.2070    4.0782    6.4501 O.2       1 <0>        -0.4972
     25 C17         0.3699    4.2220    7.9246 C.3       1 <0>        -0.0163
     26 C18         2.2832    5.3129    8.9306 C.3       1 <0>        -0.0545
     27 C19         0.8287    3.9288   10.2839 C.3       1 <0>        -0.0423
     28 C20         0.3070    4.2786    0.4936 C.3       1 <0>        -0.0006
     29 H3         -0.5968    3.6695    0.4742 H         1 <0>         0.0998
     30 C21         1.3024    3.7461   -0.5314 C.3       1 <0>        -0.0645
     31 H4          0.9036    3.9391   -1.5273 H         1 <0>         0.0904
     32 C22         1.4980    2.2401   -0.3612 C.3       1 <0>         0.1156
     33 H5          1.9440    2.0381    0.6127 H         1 <0>         0.0611
     34 O3          0.2338    1.5804   -0.4541 O.3       1 <0>        -0.5586
     35 C23        -0.0466    5.7287    0.1574 C.3       1 <0>        -0.1561
     36 C24         2.4988    5.9684   -0.4549 C.3       1 <0>        -0.1494
     37 H6          4.7409   -2.9550   -3.1138 H         1 <0>         0.0572
     38 H7          3.2680   -3.7027   -3.7771 H         1 <0>         0.0553
     39 H8          4.7113   -3.5177   -4.8023 H         1 <0>         0.0687
     40 H9          3.0080   -1.7994   -5.3451 H         1 <0>         0.0773
     41 H10         4.4809   -1.0517   -4.6818 H         1 <0>         0.0853
     42 H11         1.1467   -2.2439   -3.8255 H         1 <0>         0.0833
     43 H12         1.0762   -1.3696   -2.2766 H         1 <0>         0.0779
     44 H13         0.9020    0.7810   -3.4986 H         1 <0>         0.0613
     45 H14         0.9725   -0.0933   -5.0474 H         1 <0>         0.0602
     46 H15        -0.4162   -0.3234   -3.9580 H         1 <0>         0.0711
     47 H16         4.3506    0.5222   -0.0086 H         1 <0>         0.0758
     48 H17         2.8119    0.2978    0.8577 H         1 <0>         0.0612
     49 H18         3.6214   -1.0975    0.1053 H         1 <0>         0.0599
     50 H19         4.2384    2.2413   -0.4248 H         1 <0>         0.0736
     51 H20         4.4206    2.0915   -2.1883 H         1 <0>         0.0879
     52 H21         4.5259    4.4656   -1.4866 H         1 <0>         0.0737
     53 H22         3.0911    4.1660   -2.4986 H         1 <0>         0.0717
     54 H23         3.6658    2.9954    0.8504 H         1 <0>         0.0983
     55 H24         4.1353    4.6857    1.1656 H         1 <0>         0.0879
     56 H25        -0.7313    4.3301    5.5412 H         1 <0>         0.4323
     57 H26        -0.1729    5.1597    8.0437 H         1 <0>         0.1696
     58 H27        -0.3213    3.3860    8.0318 H         1 <0>         0.1678
     59 H28         1.6854    6.2042    9.1212 H         1 <0>         0.1235
     60 H29         3.0484    5.2170    9.7009 H         1 <0>         0.1286
     61 H30         2.7595    5.3969    7.9538 H         1 <0>         0.1345
     62 H31         0.2476    3.0066   10.2909 H         1 <0>         0.1250
     63 H32         1.6248    3.8623   11.0255 H         1 <0>         0.1306
     64 H33         0.1782    4.7700   10.5235 H         1 <0>         0.1275
     65 H34         0.2888    0.6162   -0.4056 H         1 <0>         0.3734
     66 H35        -0.0755    5.8542   -0.9249 H         1 <0>         0.0682
     67 H36        -1.0226    5.9715    0.5775 H         1 <0>         0.0552
     68 H37         0.7065    6.3937    0.5803 H         1 <0>         0.0704
     69 H38         1.7175    6.2253   -1.1701 H         1 <0>         0.0707
     70 H39         2.2253    6.3419    0.5319 H         1 <0>         0.0635
     71 H40         3.4400    6.4212   -0.7667 H         1 <0>         0.0601
     72 N4          1.4318    4.1047    8.9460 N.4       1 <0>        -0.3852
     73 H41         2.0120    3.2852    8.7313 H         1 <0>         0.4401
@<TRIPOS>BOND
     1    1    2 1
     2    1   37 1
     3    1   38 1
     4    1   39 1
     5    2    3 1
     6    2   40 1
     7    2   41 1
     8    3    4 1
     9    3    6 am
    10    4    5 1
    11    4   42 1
    12    4   43 1
    13    5   44 1
    14    5   45 1
    15    5   46 1
    16    6    7 2
    17    6    8 1
    18    8    9 1
    19    8   10 1
    20    8   11 1
    21   10   47 1
    22   10   48 1
    23   10   49 1
    24   11   12 1
    25   11   32 1
    26   11   13 1
    27   13   14 1
    28   13   50 1
    29   13   51 1
    30   14   15 1
    31   14   52 1
    32   14   53 1
    33   15   30 1
    34   15   16 1
    35   15   36 1
    36   16   17 1
    37   16   54 1
    38   16   55 1
    39   17   21 1
    40   17   18 2
    41   18   19 1
    42   18   28 1
    43   19   20 2
    44   20   21 1
    45   20   22 1
    46   22   23 am
    47   22   56 1
    48   23   24 2
    49   23   25 1
    50   25   57 1
    51   25   58 1
    52   25   72 1
    53   26   59 1
    54   26   60 1
    55   26   61 1
    56   26   72 1
    57   27   62 1
    58   27   63 1
    59   27   64 1
    60   27   72 1
    61   28   29 1
    62   28   30 1
    63   28   35 1
    64   30   31 1
    65   30   32 1
    66   32   33 1
    67   32   34 1
    68   34   65 1
    69   35   66 1
    70   35   67 1
    71   35   68 1
    72   36   69 1
    73   36   70 1
    74   36   71 1
    75   72   73 1
