@<TRIPOS>MOLECULE
ZINC04960880
   47    50     0     0     0
SMALL
USER_CHARGES
2-(5-chloro-2-pyridyl)-3-(2,4,6-trimethylphenyl)amino-isoindolin-1-one
@<TRIPOS>ATOM
      1 C1          0.2093    9.6550    0.8309 C.3       1 <0>        -0.1149
      2 C2          0.4943    8.1802    0.9521 C.ar      1 <0>        -0.0878
      3 C3          0.0678    7.4846    2.0686 C.ar      1 <0>        -0.1110
      4 C4          0.3269    6.1329    2.1827 C.ar      1 <0>        -0.1118
      5 C5          1.0169    5.4721    1.1743 C.ar      1 <0>         0.0939
      6 C6          1.4486    6.1749    0.0566 C.ar      1 <0>        -0.0694
      7 C7          1.1815    7.5254   -0.0536 C.ar      1 <0>        -0.1124
      8 C8          2.2029    5.4635   -1.0370 C.3       1 <0>        -0.1266
      9 N1          1.2812    4.1052    1.2867 N.pl3     1 <0>        -0.6166
     10 C9          0.4480    3.3298    0.3580 C.3       1 <0>         0.3514
     11 H1          0.4697    3.7830   -0.6331 H         1 <0>         0.1278
     12 C10        -0.9704    3.2629    0.8664 C.ar      1 <0>        -0.1187
     13 C11        -1.9219    4.2199    1.1340 C.ar      1 <0>        -0.0834
     14 C12        -3.1689    3.8428    1.6034 C.ar      1 <0>        -0.0816
     15 C13        -3.4616    2.5053    1.8046 C.ar      1 <0>        -0.1158
     16 C14        -2.5150    1.5378    1.5395 C.ar      1 <0>        -0.0403
     17 C15        -1.2570    1.9096    1.0607 C.ar      1 <0>        -0.1521
     18 C16        -0.0605    1.1267    0.6986 C.2       1 <0>         0.5694
     19 O1          0.0209   -0.0847    0.7571 O.2       1 <0>        -0.4895
     20 N2          0.9252    1.9439    0.2893 N.am      1 <0>        -0.5355
     21 C17         2.1913    1.5413   -0.1314 C.ar      1 <0>         0.3857
     22 C18         2.5138    0.1887   -0.1478 C.ar      1 <0>        -0.1868
     23 C19         3.7740   -0.1978   -0.5676 C.ar      1 <0>        -0.0380
     24 C20         4.6731    0.7866   -0.9586 C.ar      1 <0>        -0.1163
     25 C21         4.2847    2.1121   -0.9169 C.ar      1 <0>         0.1477
     26 N3          3.0735    2.4495   -0.5167 N.ar      1 <0>        -0.4745
     27 Cl1         6.2672    0.3561   -1.4945 Cl        1 <0>        -0.0521
     28 C22        -0.1387    5.3756    3.3995 C.3       1 <0>        -0.1204
     29 H2          1.0294   10.2211    1.2724 H         1 <0>         0.0702
     30 H3          0.1097    9.9205   -0.2216 H         1 <0>         0.0660
     31 H4         -0.7176    9.8901    1.3541 H         1 <0>         0.0654
     32 H5         -0.4683    7.9991    2.8524 H         1 <0>         0.1219
     33 H6          1.5132    8.0716   -0.9242 H         1 <0>         0.1237
     34 H7          1.4964    5.0578   -1.7611 H         1 <0>         0.0581
     35 H8          2.8701    6.1669   -1.5351 H         1 <0>         0.0602
     36 H9          2.7879    4.6511   -0.6057 H         1 <0>         0.1077
     37 H10         1.1540    3.7892    2.2365 H         1 <0>         0.3577
     38 H11        -1.6965    5.2645    0.9777 H         1 <0>         0.1353
     39 H12        -3.9151    4.5948    1.8135 H         1 <0>         0.1379
     40 H13        -4.4359    2.2177    2.1712 H         1 <0>         0.1389
     41 H14        -2.7476    0.4950    1.6975 H         1 <0>         0.1378
     42 H15         1.7899   -0.5502    0.1628 H         1 <0>         0.1708
     43 H16         4.0528   -1.2410   -0.5905 H         1 <0>         0.1507
     44 H17         4.9799    2.8812   -1.2194 H         1 <0>         0.1712
     45 H18         0.6380    5.4029    4.1637 H         1 <0>         0.0724
     46 H19        -1.0472    5.8358    3.7882 H         1 <0>         0.0733
     47 H20        -0.3439    4.3404    3.1267 H         1 <0>         0.0604
@<TRIPOS>BOND
     1    1    2 1
     2    1   29 1
     3    1   30 1
     4    1   31 1
     5    2    7 ar
     6    2    3 ar
     7    3    4 ar
     8    3   32 1
     9    4    5 ar
    10    4   28 1
    11    5    6 ar
    12    5    9 1
    13    6    7 ar
    14    6    8 1
    15    7   33 1
    16    8   34 1
    17    8   35 1
    18    8   36 1
    19    9   10 1
    20    9   37 1
    21   10   11 1
    22   10   20 1
    23   10   12 1
    24   12   17 ar
    25   12   13 ar
    26   13   14 ar
    27   13   38 1
    28   14   15 ar
    29   14   39 1
    30   15   16 ar
    31   15   40 1
    32   16   17 ar
    33   16   41 1
    34   17   18 1
    35   18   19 2
    36   18   20 am
    37   20   21 1
    38   21   26 ar
    39   21   22 ar
    40   22   23 ar
    41   22   42 1
    42   23   24 ar
    43   23   43 1
    44   24   25 ar
    45   24   27 1
    46   25   26 ar
    47   25   44 1
    48   28   45 1
    49   28   46 1
    50   28   47 1
