@<TRIPOS>MOLECULE
ZINC02095794
   75    79     0     0     0
SMALL
USER_CHARGES
3-diethylaminopropyl-(4-isopropylphenyl)BLAHdione
@<TRIPOS>ATOM
      1 C1         -9.8175   -1.0487   -1.4054 C.3       1 <0>        -0.1903
      2 C2         -8.6631   -1.0001   -2.4083 C.3       1 <0>        -0.0092
      3 C3         -9.0806   -3.2458   -3.2116 C.3       1 <0>        -0.0118
      4 C4         -8.6933   -4.6992   -2.9315 C.3       1 <0>        -0.1903
      5 C5         -6.8527   -2.3069   -3.3451 C.3       1 <0>        -0.0041
      6 C6         -5.7208   -1.8052   -2.4462 C.3       1 <0>        -0.1689
      7 C7         -4.4398   -1.6630   -3.2706 C.3       1 <0>         0.1119
      8 N1         -3.3560   -1.1826   -2.4099 N.am      1 <0>        -0.6034
      9 C8         -3.1637    0.2528   -2.2879 C.3       1 <0>         0.1006
     10 C9         -1.9808    0.5906   -1.4400 C.2       1 <0>         0.5038
     11 O1         -1.7091    1.7630   -1.2895 O.2       1 <0>        -0.4847
     12 N2         -1.2202   -0.3073   -0.8399 N.am      1 <0>        -0.5872
     13 C10        -1.4685   -1.7482   -0.8734 C.3       1 <0>         0.1334
     14 H1         -0.5697   -2.2526   -1.2279 H         1 <0>         0.1256
     15 C11        -2.6038   -2.0864   -1.7850 C.2       1 <0>         0.5256
     16 O2         -2.8556   -3.2586   -1.9674 O.2       1 <0>        -0.5196
     17 C12        -1.7843   -2.2383    0.5468 C.3       1 <0>        -0.0365
     18 C13        -0.7890   -1.6335    1.5036 C.2       1 <0>        -0.1637
     19 C14        -0.4734   -2.0516    2.8545 C.ar      1 <0>        -0.0988
     20 C15        -0.9526   -3.0876    3.6621 C.ar      1 <0>        -0.0695
     21 C16        -0.4155   -3.1916    4.9214 C.ar      1 <0>        -0.1437
     22 C17         0.5544   -2.3165    5.3824 C.ar      1 <0>        -0.0941
     23 C18         1.0462   -1.2825    4.6048 C.ar      1 <0>        -0.1268
     24 C19         0.5202   -1.1532    3.3209 C.ar      1 <0>         0.1063
     25 N3          0.7734   -0.2684    2.3126 N.pl3     1 <0>        -0.5691
     26 H2          1.4136    0.4591    2.3561 H         1 <0>         0.4199
     27 C20        -0.0122   -0.5630    1.2301 C.2       1 <0>         0.0654
     28 C21        -0.0392    0.1721   -0.0907 C.3       1 <0>         0.2478
     29 H3          0.8697   -0.0426   -0.6528 H         1 <0>         0.1061
     30 C22        -0.1533    1.6553    0.1509 C.ar      1 <0>        -0.0435
     31 C23         0.7206    2.5263   -0.4723 C.ar      1 <0>        -0.1131
     32 C24         0.6131    3.8871   -0.2542 C.ar      1 <0>        -0.1013
     33 C25        -0.3622    4.3761    0.5947 C.ar      1 <0>        -0.0738
     34 C26        -1.2330    3.5047    1.2216 C.ar      1 <0>        -0.1089
     35 C27        -1.1283    2.1442    1.0001 C.ar      1 <0>        -0.0911
     36 C28        -0.4763    5.8592    0.8362 C.3       1 <0>        -0.0579
     37 C29         0.8309    6.3803    1.4367 C.3       1 <0>        -0.1452
     38 C30        -0.7484    6.5724   -0.4898 C.3       1 <0>        -0.1427
     39 H4        -10.2315   -0.0483   -1.2792 H         1 <0>         0.1065
     40 H5        -10.5931   -1.7188   -1.7764 H         1 <0>         0.0809
     41 H6         -9.4504   -1.4136   -0.4462 H         1 <0>         0.0799
     42 H7         -7.8875   -0.3300   -2.0374 H         1 <0>         0.1270
     43 H8         -9.0302   -0.6352   -3.3675 H         1 <0>         0.1316
     44 H9        -10.0726   -3.0492   -2.8049 H         1 <0>         0.1312
     45 H10        -9.0883   -3.0728   -4.2878 H         1 <0>         0.1313
     46 H11        -7.6861   -4.8852   -3.3045 H         1 <0>         0.0802
     47 H12        -8.7226   -4.8825   -1.8574 H         1 <0>         0.0804
     48 H13        -9.3953   -5.3654   -3.4330 H         1 <0>         0.1067
     49 H14        -6.9685   -1.6330   -4.1939 H         1 <0>         0.1340
     50 H15        -6.6141   -3.3075   -3.7055 H         1 <0>         0.1342
     51 H16        -5.5556   -2.5178   -1.6381 H         1 <0>         0.0944
     52 H17        -5.9923   -0.8365   -2.0266 H         1 <0>         0.0874
     53 H18        -4.6050   -0.9505   -4.0787 H         1 <0>         0.0942
     54 H19        -4.1683   -2.6317   -3.6902 H         1 <0>         0.1050
     55 H20        -3.0196    0.6766   -3.2817 H         1 <0>         0.1155
     56 H21        -4.0559    0.6931   -1.8427 H         1 <0>         0.1066
     57 H22        -1.7113   -3.3253    0.5826 H         1 <0>         0.1005
     58 H23        -2.7920   -1.9289    0.8243 H         1 <0>         0.0752
     59 H24        -1.7084   -3.7746    3.3112 H         1 <0>         0.1281
     60 H25        -0.7606   -3.9802    5.5735 H         1 <0>         0.1208
     61 H26         0.9403   -2.4457    6.3828 H         1 <0>         0.1247
     62 H27         1.8025   -0.6068    4.9761 H         1 <0>         0.1308
     63 H28         1.4852    2.1439   -1.1323 H         1 <0>         0.1153
     64 H29         1.2933    4.5680   -0.7443 H         1 <0>         0.1187
     65 H30        -1.9950    3.8867    1.8848 H         1 <0>         0.1139
     66 H31        -1.8085    1.4634    1.4902 H         1 <0>         0.1055
     67 H32        -1.2964    6.0527    1.5277 H         1 <0>         0.0744
     68 H33         1.6509    6.1868    0.7452 H         1 <0>         0.0567
     69 H34         0.7483    7.4530    1.6114 H         1 <0>         0.0592
     70 H35         1.0247    5.8722    2.3813 H         1 <0>         0.0547
     71 H36        -1.6797    6.2012   -0.9176 H         1 <0>         0.0543
     72 H37        -0.8309    7.6452   -0.3151 H         1 <0>         0.0580
     73 H38         0.0717    6.3790   -1.1813 H         1 <0>         0.0562
     74 N4         -8.0991   -2.3587   -2.5523 N.4       1 <0>        -0.3975
     75 H39        -7.8860   -2.7319   -1.6198 H         1 <0>         0.4262
@<TRIPOS>BOND
     1    1    2 1
     2    1   39 1
     3    1   40 1
     4    1   41 1
     5    2   42 1
     6    2   43 1
     7    2   74 1
     8    3    4 1
     9    3   44 1
    10    3   45 1
    11    3   74 1
    12    4   46 1
    13    4   47 1
    14    4   48 1
    15    5    6 1
    16    5   49 1
    17    5   50 1
    18    5   74 1
    19    6    7 1
    20    6   51 1
    21    6   52 1
    22    7    8 1
    23    7   53 1
    24    7   54 1
    25    8   15 am
    26    8    9 1
    27    9   10 1
    28    9   55 1
    29    9   56 1
    30   10   11 2
    31   10   12 am
    32   12   28 1
    33   12   13 1
    34   13   14 1
    35   13   15 1
    36   13   17 1
    37   15   16 2
    38   17   18 1
    39   17   57 1
    40   17   58 1
    41   18   27 2
    42   18   19 1
    43   19   24 ar
    44   19   20 ar
    45   20   21 ar
    46   20   59 1
    47   21   22 ar
    48   21   60 1
    49   22   23 ar
    50   22   61 1
    51   23   24 ar
    52   23   62 1
    53   24   25 1
    54   25   26 1
    55   25   27 1
    56   27   28 1
    57   28   29 1
    58   28   30 1
    59   30   35 ar
    60   30   31 ar
    61   31   32 ar
    62   31   63 1
    63   32   33 ar
    64   32   64 1
    65   33   34 ar
    66   33   36 1
    67   34   35 ar
    68   34   65 1
    69   35   66 1
    70   36   37 1
    71   36   38 1
    72   36   67 1
    73   37   68 1
    74   37   69 1
    75   37   70 1
    76   38   71 1
    77   38   72 1
    78   38   73 1
    79   74   75 1
