@<TRIPOS>MOLECULE
ZINC02309614
   61    64     0     0     0
SMALL
USER_CHARGES
2-[[(4S)-4-(4-benzyloxy-3-methoxy-phenyl)-3-cyano-6-oxo-4,5-dihydro-1H-pyridin-2-yl]sulfanyl]-N-(3-chlorophenyl)acetamide
@<TRIPOS>ATOM
      1 C1          2.2387    5.2896   -0.0204 C.3       1 <0>         0.0245
      2 O1          2.3383    3.8641   -0.0354 O.3       1 <0>        -0.3036
      3 C2          1.1726    3.1636   -0.0246 C.ar      1 <0>         0.1057
      4 C3         -0.0399    3.8338    0.0003 C.ar      1 <0>        -0.1585
      5 C4         -1.2239    3.1202    0.0117 C.ar      1 <0>        -0.0835
      6 C5         -1.2017    1.7380   -0.0070 C.ar      1 <0>        -0.1123
      7 C6          0.0047    1.0632   -0.0266 C.ar      1 <0>        -0.1681
      8 C7          1.1950    1.7723   -0.0381 C.ar      1 <0>         0.1072
      9 O2          2.3826    1.1101   -0.0621 O.3       1 <0>        -0.2955
     10 C8          2.3290   -0.3178   -0.0743 C.3       1 <0>         0.1008
     11 C9          3.7298   -0.8729   -0.1006 C.ar      1 <0>        -0.0972
     12 C10         4.3521   -1.1219   -1.3096 C.ar      1 <0>        -0.0946
     13 C11         5.6390   -1.6260   -1.3337 C.ar      1 <0>        -0.1230
     14 C12         6.2995   -1.8916   -0.1488 C.ar      1 <0>        -0.1088
     15 C13         5.6752   -1.6480    1.0602 C.ar      1 <0>        -0.1231
     16 C14         4.3904   -1.1384    1.0843 C.ar      1 <0>        -0.0945
     17 C15        -2.5417    3.8507    0.0388 C.3       1 <0>         0.0248
     18 H1         -2.3614    4.9256    0.0460 H         1 <0>         0.1135
     19 C16        -3.3183    3.4554    1.2962 C.3       1 <0>        -0.1332
     20 C17        -3.8275    2.0455    1.1519 C.2       1 <0>         0.5304
     21 O3         -3.8952    1.3272    2.1265 O.2       1 <0>        -0.4982
     22 N1         -4.2084    1.5772   -0.0508 N.am      1 <0>        -0.6634
     23 C18        -4.1341    2.3747   -1.1733 C.2       1 <0>         0.1488
     24 C19        -3.3446    3.4839   -1.1823 C.2       1 <0>        -0.0948
     25 C20        -3.2776    4.3039   -2.3544 C.1       1 <0>         0.2526
     26 N2         -3.2244    4.9544   -3.2842 N.1       1 <0>        -0.3956
     27 S1         -5.0681    1.9550   -2.6073 S.3       1 <0>         0.0514
     28 C21        -5.8852    0.4502   -2.0208 C.3       1 <0>        -0.1836
     29 C22        -6.7637   -0.1028   -3.1133 C.2       1 <0>         0.5353
     30 O4         -6.8306    0.4646   -4.1832 O.2       1 <0>        -0.4905
     31 N3         -7.4748   -1.2279   -2.9016 N.am      1 <0>        -0.6638
     32 C23        -8.3638   -1.6881   -3.8793 C.ar      1 <0>         0.1506
     33 C24        -9.5484   -2.3096   -3.5055 C.ar      1 <0>        -0.1362
     34 C25       -10.4266   -2.7582   -4.4723 C.ar      1 <0>        -0.0868
     35 C26       -10.1229   -2.5993   -5.8120 C.ar      1 <0>        -0.1205
     36 C27        -8.9413   -1.9853   -6.1882 C.ar      1 <0>        -0.0167
     37 C28        -8.0608   -1.5295   -5.2248 C.ar      1 <0>        -0.1131
     38 Cl1        -8.5640   -1.7877   -7.8712 Cl        1 <0>        -0.0592
     39 H2          3.2384    5.7237   -0.0312 H         1 <0>         0.1017
     40 H3          1.6876    5.6245   -0.8991 H         1 <0>         0.0558
     41 H4          1.7142    5.6077    0.8806 H         1 <0>         0.0565
     42 H5         -0.0601    4.9135    0.0105 H         1 <0>         0.1391
     43 H6         -2.1289    1.1841   -0.0021 H         1 <0>         0.1222
     44 H7          0.0193   -0.0167   -0.0374 H         1 <0>         0.1352
     45 H8          1.8154   -0.6698    0.8203 H         1 <0>         0.0713
     46 H9          1.7885   -0.6536   -0.9593 H         1 <0>         0.0708
     47 H10         3.8343   -0.9186   -2.2354 H         1 <0>         0.1238
     48 H11         6.1269   -1.8161   -2.2783 H         1 <0>         0.1257
     49 H12         7.3036   -2.2890   -0.1676 H         1 <0>         0.1247
     50 H13         6.1913   -1.8554    1.9860 H         1 <0>         0.1257
     51 H14         3.9026   -0.9481    2.0289 H         1 <0>         0.1240
     52 H15        -2.6607    3.5169    2.1634 H         1 <0>         0.1233
     53 H16        -4.1608    4.1338    1.4309 H         1 <0>         0.1194
     54 H17        -4.5386    0.6685   -0.1290 H         1 <0>         0.4115
     55 H18        -5.1324   -0.2901   -1.7502 H         1 <0>         0.1292
     56 H19        -6.4948    0.6843   -1.1480 H         1 <0>         0.1328
     57 H20        -7.3704   -1.7186   -2.0714 H         1 <0>         0.4173
     58 H21        -9.7843   -2.4386   -2.4595 H         1 <0>         0.1344
     59 H22       -11.3497   -3.2375   -4.1818 H         1 <0>         0.1398
     60 H23       -10.8092   -2.9553   -6.5661 H         1 <0>         0.1374
     61 H24        -7.1382   -1.0509   -5.5185 H         1 <0>         0.1508
@<TRIPOS>BOND
     1    1    2 1
     2    1   39 1
     3    1   40 1
     4    1   41 1
     5    2    3 1
     6    3    8 ar
     7    3    4 ar
     8    4    5 ar
     9    4   42 1
    10    5    6 ar
    11    5   17 1
    12    6    7 ar
    13    6   43 1
    14    7    8 ar
    15    7   44 1
    16    8    9 1
    17    9   10 1
    18   10   11 1
    19   10   45 1
    20   10   46 1
    21   11   16 ar
    22   11   12 ar
    23   12   13 ar
    24   12   47 1
    25   13   14 ar
    26   13   48 1
    27   14   15 ar
    28   14   49 1
    29   15   16 ar
    30   15   50 1
    31   16   51 1
    32   17   18 1
    33   17   24 1
    34   17   19 1
    35   19   20 1
    36   19   52 1
    37   19   53 1
    38   20   21 2
    39   20   22 am
    40   22   23 1
    41   22   54 1
    42   23   24 2
    43   23   27 1
    44   24   25 1
    45   25   26 3
    46   27   28 1
    47   28   29 1
    48   28   55 1
    49   28   56 1
    50   29   30 2
    51   29   31 am
    52   31   32 1
    53   31   57 1
    54   32   37 ar
    55   32   33 ar
    56   33   34 ar
    57   33   58 1
    58   34   35 ar
    59   34   59 1
    60   35   36 ar
    61   35   60 1
    62   36   37 ar
    63   36   38 1
    64   37   61 1
