@<TRIPOS>MOLECULE
ZINC20071073
   39    39     0     0     0
SMALL
USER_CHARGES
2-[(4-bromo-2,6-dimethyl-phenyl)amino]-N-tert-butyl-acetamide
@<TRIPOS>ATOM
      1 C1         -0.6378    1.7249    1.3733 C.3       1 <0>        -0.1054
      2 C2          0.5030    1.2148    0.5310 C.ar      1 <0>        -0.0881
      3 C3          0.8378   -0.1248    0.5589 C.ar      1 <0>        -0.0918
      4 C4          1.8814   -0.5948   -0.2185 C.ar      1 <0>        -0.0887
      5 C5          2.5929    0.2752   -1.0255 C.ar      1 <0>        -0.0923
      6 C6          2.2630    1.6159   -1.0572 C.ar      1 <0>        -0.0863
      7 C7          1.2152    2.0905   -0.2786 C.ar      1 <0>         0.1889
      8 N1          0.8786    3.4462   -0.3093 N.pl3     1 <0>        -0.7859
      9 C8          1.4915    4.1664    0.8148 C.3       1 <0>         0.1084
     10 C9          1.1999    5.6394    0.6865 C.2       1 <0>         0.5147
     11 O1          0.5458    6.0488   -0.2491 O.2       1 <0>        -0.5358
     12 N2          1.6660    6.5017    1.6116 N.am      1 <0>        -0.7338
     13 C10         1.3825    7.9335    1.4869 C.3       1 <0>         0.1726
     14 C11        -0.1311    8.1570    1.5026 C.3       1 <0>        -0.1658
     15 C12         2.0209    8.6837    2.6577 C.3       1 <0>        -0.1574
     16 C13         1.9614    8.4553    0.1703 C.3       1 <0>        -0.1659
     17 C14         3.0384    2.5628   -1.9365 C.3       1 <0>        -0.1154
     18 Br1         2.3366   -2.4297   -0.1774 Br        1 <0>        -0.0529
     19 H1         -1.0757    0.8909    1.9413 H         1 <0>         0.0635
     20 H2         -1.4054    2.1676    0.7215 H         1 <0>         0.0726
     21 H3         -0.2650    2.4885    2.0718 H         1 <0>         0.0684
     22 H4          0.2842   -0.8062    1.1879 H         1 <0>         0.1313
     23 H5          3.4072   -0.0945   -1.6310 H         1 <0>         0.1311
     24 H6          0.2507    3.9874   -1.0324 H         1 <0>         0.4441
     25 H7          1.0751    3.7912    1.7613 H         1 <0>         0.0735
     26 H8          2.5796    4.0057    0.8037 H         1 <0>         0.0752
     27 H9          2.2593    6.1304    2.4602 H         1 <0>         0.4204
     28 H10        -0.3440    9.2321    1.4090 H         1 <0>         0.0626
     29 H11        -0.5473    7.7819    2.4492 H         1 <0>         0.0533
     30 H12        -0.5901    7.6177    0.6609 H         1 <0>         0.0782
     31 H13         1.8080    9.7588    2.5640 H         1 <0>         0.0737
     32 H14         3.1090    8.5230    2.6465 H         1 <0>         0.0627
     33 H15         1.6046    8.3085    3.6042 H         1 <0>         0.0627
     34 H16         1.7485    9.5304    0.0767 H         1 <0>         0.0626
     35 H17         1.5023    7.9160   -0.6714 H         1 <0>         0.0782
     36 H18         3.0495    8.2946    0.1590 H         1 <0>         0.0533
     37 H19         2.6324    3.5794   -1.8281 H         1 <0>         0.0770
     38 H20         2.9517    2.2432   -2.9855 H         1 <0>         0.0689
     39 H21         4.0970    2.5569   -1.6377 H         1 <0>         0.0675
@<TRIPOS>BOND
     1    1    2 1
     2    1   19 1
     3    1   20 1
     4    1   21 1
     5    2    7 ar
     6    2    3 ar
     7    3    4 ar
     8    3   22 1
     9    4    5 ar
    10    4   18 1
    11    5    6 ar
    12    5   23 1
    13    6    7 ar
    14    6   17 1
    15    7    8 1
    16    8    9 1
    17    8   24 1
    18    9   10 1
    19    9   25 1
    20    9   26 1
    21   10   11 2
    22   10   12 am
    23   12   13 1
    24   12   27 1
    25   13   14 1
    26   13   15 1
    27   13   16 1
    28   14   28 1
    29   14   29 1
    30   14   30 1
    31   15   31 1
    32   15   32 1
    33   15   33 1
    34   16   34 1
    35   16   35 1
    36   16   36 1
    37   17   37 1
    38   17   38 1
    39   17   39 1
