@<TRIPOS>MOLECULE
ZINC16129215
   24    25     0     0     0
SMALL
USER_CHARGES
5-chloro-N-(2,3,4-trifluorophenyl)thiophene-2-sulfonamide
@<TRIPOS>ATOM
      1 C1          0.0028    1.2585   -0.2404 C.ar      1 <0>        -0.1289
      2 C2         -1.1393    2.0205   -0.4008 C.ar      1 <0>        -0.0972
      3 C3         -1.0484    3.3988   -0.4814 C.ar      1 <0>         0.0882
      4 C4          0.1902    4.0191   -0.4130 C.ar      1 <0>         0.0593
      5 C5          1.3369    3.2593   -0.2582 C.ar      1 <0>         0.0790
      6 C6          1.2443    1.8747   -0.1715 C.ar      1 <0>         0.1409
      7 N1          2.4019    1.1034   -0.0145 N.pl3     1 <0>        -1.0447
      8 S1          2.5125   -0.3811   -0.7401 S.o2      1 <0>         2.7300
      9 O1          3.8352   -0.8473   -0.5116 O.2       1 <0>        -0.9260
     10 O2          1.3653   -1.1165   -0.3373 O.2       1 <0>        -0.9300
     11 C7          2.3619   -0.1245   -2.4768 C.2       1 <0>        -0.7764
     12 C8          3.3330    0.1135   -3.3914 C.2       1 <0>         0.0154
     13 C9          2.9786    0.2853   -4.7169 C.2       1 <0>        -0.1775
     14 C10         1.6688    0.2104   -5.0617 C.2       1 <0>        -0.0792
     15 S2          0.8912   -0.1186   -3.4888 S.3       1 <0>         0.2298
     16 Cl1         0.9389    0.3824   -6.6274 Cl        1 <0>         0.0419
     17 F1          2.5440    3.8622   -0.1910 F         1 <0>        -0.1111
     18 F2          0.2776    5.3646   -0.4979 F         1 <0>        -0.1093
     19 F3         -2.1671    4.1410   -0.6324 F         1 <0>        -0.1138
     20 H1         -0.0707    0.1831   -0.1733 H         1 <0>         0.1876
     21 H2         -2.1046    1.5395   -0.4587 H         1 <0>         0.1674
     22 H3          3.1392    1.4384    0.5194 H         1 <0>         0.4371
     23 H4          4.3685    0.1685   -3.0895 H         1 <0>         0.1599
     24 H5          3.7329    0.4766   -5.4658 H         1 <0>         0.1577
@<TRIPOS>BOND
     1    1    6 ar
     2    1    2 ar
     3    1   20 1
     4    2    3 ar
     5    2   21 1
     6    3    4 ar
     7    3   19 1
     8    4    5 ar
     9    4   18 1
    10    5    6 ar
    11    5   17 1
    12    6    7 1
    13    7    8 1
    14    7   22 1
    15    8    9 2
    16    8   10 2
    17    8   11 1
    18   11   15 1
    19   11   12 2
    20   12   13 1
    21   12   23 1
    22   13   14 2
    23   13   24 1
    24   14   15 1
    25   14   16 1
