@<TRIPOS>MOLECULE
ZINC04139501
   35    37     0     0     0
SMALL
USER_CHARGES

@<TRIPOS>ATOM
      1 C1         -1.5870   -2.3674   -2.2237 C.3       1 <0>        -0.1201
      2 C2         -0.7666   -1.8570   -1.0672 C.ar      1 <0>        -0.0482
      3 C3         -0.0431   -0.6854   -1.1974 C.ar      1 <0>        -0.1361
      4 C4          0.7109   -0.2135   -0.1388 C.ar      1 <0>        -0.0825
      5 C5          0.7443   -0.9114    1.0526 C.ar      1 <0>        -0.1478
      6 C6          0.0189   -2.0883    1.1868 C.ar      1 <0>         0.1602
      7 C7         -0.7426   -2.5564    0.1230 C.ar      1 <0>        -0.1589
      8 N1          0.0504   -2.7970    2.3909 N.pl3     1 <0>        -0.6098
      9 C8         -0.0360   -4.1805    2.3833 C.2       1 <0>         0.3701
     10 N2         -0.1331   -5.0163    3.4010 N.2       1 <0>        -0.5493
     11 C9         -0.2070   -6.3316    3.2070 C.2       1 <0>         0.1878
     12 C10        -0.1815   -6.8211    1.9301 C.2       1 <0>        -0.2378
     13 S1         -0.0531   -5.3037    0.9933 S.3       1 <0>         0.0353
     14 C11        -0.3149   -7.2527    4.3592 C.2       1 <0>        -0.1601
     15 C12        -0.3622   -6.9755    5.7013 C.2       1 <0>         0.1036
     16 N3         -0.4611   -8.0066    6.5130 N.2       1 <0>        -0.5173
     17 C13        -0.5116   -9.2340    6.0581 C.2       1 <0>         0.0565
     18 S2         -0.4277   -9.0347    4.3890 S.3       1 <0>         0.1303
     19 C14        -0.6239  -10.5166    6.8412 C.3       1 <0>        -0.0669
     20 C15        -0.3033   -5.5620    6.2203 C.3       1 <0>        -0.0796
     21 H1         -2.5923   -1.9496   -2.1685 H         1 <0>         0.0755
     22 H2         -1.1196   -2.0667   -3.1614 H         1 <0>         0.0720
     23 H3         -1.6425   -3.4550   -2.1778 H         1 <0>         0.0698
     24 H4         -0.0669   -0.1381   -2.1282 H         1 <0>         0.1281
     25 H5          1.2747    0.7016   -0.2438 H         1 <0>         0.1320
     26 H6          1.3340   -0.5427    1.8788 H         1 <0>         0.1306
     27 H7         -1.3113   -3.4688    0.2255 H         1 <0>         0.1309
     28 H8          0.1326   -2.3208    3.2319 H         1 <0>         0.4279
     29 H9         -0.2302   -7.8427    1.5831 H         1 <0>         0.1971
     30 H10        -1.6758  -10.7659    6.9811 H         1 <0>         0.0914
     31 H11        -0.1295  -11.3201    6.2952 H         1 <0>         0.0872
     32 H12        -0.1477  -10.3915    7.8136 H         1 <0>         0.0940
     33 H13        -1.3139   -5.1607    6.2968 H         1 <0>         0.0718
     34 H14         0.1657   -5.5554    7.2042 H         1 <0>         0.0669
     35 H15         0.2807   -4.9474    5.5353 H         1 <0>         0.0957
@<TRIPOS>BOND
     1    1    2 1
     2    1   21 1
     3    1   22 1
     4    1   23 1
     5    2    7 ar
     6    2    3 ar
     7    3    4 ar
     8    3   24 1
     9    4    5 ar
    10    4   25 1
    11    5    6 ar
    12    5   26 1
    13    6    7 ar
    14    6    8 1
    15    7   27 1
    16    8    9 1
    17    8   28 1
    18    9   13 1
    19    9   10 2
    20   10   11 1
    21   11   12 2
    22   11   14 1
    23   12   13 1
    24   12   29 1
    25   14   18 1
    26   14   15 2
    27   15   16 1
    28   15   20 1
    29   16   17 2
    30   17   18 1
    31   17   19 1
    32   19   30 1
    33   19   31 1
    34   19   32 1
    35   20   33 1
    36   20   34 1
    37   20   35 1
