@<TRIPOS>MOLECULE
ZINC01703038
   42    42     0     0     0
SMALL
USER_CHARGES
3-(2-chloroethyl)-1-(3-tert-butylcyclohexyl)-urea
@<TRIPOS>ATOM
      1 C1          1.4465    1.6020    2.4955 C.3       1 <0>        -0.1453
      2 C2          0.0111    1.0724    2.5063 C.3       1 <0>        -0.0631
      3 C3         -0.7050    1.5658    3.7651 C.3       1 <0>        -0.1450
      4 C4          0.0319   -0.4574    2.4979 C.3       1 <0>        -0.1462
      5 C5         -0.7288    1.5792    1.2668 C.3       1 <0>        -0.0708
      6 H1         -0.7436    2.6691    1.2728 H         1 <0>         0.0731
      7 C6         -2.1642    1.0497    1.2777 C.3       1 <0>        -0.1204
      8 C7         -2.9042    1.5565    0.0381 C.3       1 <0>        -0.1174
      9 C8         -2.1881    1.0631   -1.2207 C.3       1 <0>        -0.1291
     10 C9         -0.7527    1.5927   -1.2315 C.3       1 <0>         0.1642
     11 H2         -0.7675    2.6825   -1.2255 H         1 <0>         0.0878
     12 C10        -0.0127    1.0858    0.0080 C.3       1 <0>        -0.1243
     13 N1         -0.0670    1.1202   -2.4368 N.am      1 <0>        -0.7412
     14 C11        -0.1900    1.8018   -3.5930 C.2       1 <0>         0.7061
     15 O1         -0.8701    2.8087   -3.6357 O.2       1 <0>        -0.5836
     16 N2          0.4408    1.3671   -4.7019 N.am      1 <0>        -0.7491
     17 C12         0.3071    2.1080   -5.9587 C.3       1 <0>         0.1288
     18 C13         1.1162    1.4075   -7.0522 C.3       1 <0>        -0.0496
     19 Cl1         0.9517    2.3193   -8.5989 Cl        1 <0>        -0.1580
     20 H3          1.4318    2.6919    2.5015 H         1 <0>         0.0546
     21 H4          1.9737    1.2409    3.3785 H         1 <0>         0.0542
     22 H5          1.9567    1.2505    1.5987 H         1 <0>         0.0565
     23 H6         -1.7276    1.1885    3.7729 H         1 <0>         0.0586
     24 H7         -0.1778    1.2047    4.6482 H         1 <0>         0.0541
     25 H8         -0.7198    2.6557    3.7711 H         1 <0>         0.0546
     26 H9          0.5421   -0.8090    1.6011 H         1 <0>         0.0559
     27 H10         0.5591   -0.8185    3.3810 H         1 <0>         0.0529
     28 H11        -0.9907   -0.8347    2.5057 H         1 <0>         0.0582
     29 H12        -2.6744    1.4012    2.1745 H         1 <0>         0.0676
     30 H13        -2.1494   -0.0402    1.2717 H         1 <0>         0.0663
     31 H14        -2.9190    2.6464    0.0441 H         1 <0>         0.0642
     32 H15        -3.9268    1.1792    0.0459 H         1 <0>         0.0648
     33 H16        -2.7153    1.4241   -2.1037 H         1 <0>         0.0667
     34 H17        -2.1733   -0.0268   -1.2266 H         1 <0>         0.0616
     35 H18         0.0021   -0.0041    0.0020 H         1 <0>         0.0711
     36 H19         1.0099    1.4631    0.0003 H         1 <0>         0.0715
     37 H20         0.4756    0.3168   -2.4028 H         1 <0>         0.3948
     38 H21         0.9834    0.5638   -4.6678 H         1 <0>         0.3966
     39 H22        -0.7427    2.1433   -6.2497 H         1 <0>         0.0794
     40 H23         0.6811    3.1229   -5.8237 H         1 <0>         0.0794
     41 H24         2.1661    1.3723   -6.7611 H         1 <0>         0.0997
     42 H25         0.7423    0.3926   -7.1871 H         1 <0>         0.0997
@<TRIPOS>BOND
     1    1    2 1
     2    1   20 1
     3    1   21 1
     4    1   22 1
     5    2    3 1
     6    2    4 1
     7    2    5 1
     8    3   23 1
     9    3   24 1
    10    3   25 1
    11    4   26 1
    12    4   27 1
    13    4   28 1
    14    5    6 1
    15    5   12 1
    16    5    7 1
    17    7    8 1
    18    7   29 1
    19    7   30 1
    20    8    9 1
    21    8   31 1
    22    8   32 1
    23    9   10 1
    24    9   33 1
    25    9   34 1
    26   10   11 1
    27   10   12 1
    28   10   13 1
    29   12   35 1
    30   12   36 1
    31   13   14 am
    32   13   37 1
    33   14   15 2
    34   14   16 am
    35   16   17 1
    36   16   38 1
    37   17   18 1
    38   17   39 1
    39   17   40 1
    40   18   19 1
    41   18   41 1
    42   18   42 1
