@<TRIPOS>MOLECULE
ZINC20308887
   31    32     0     0     0
SMALL
USER_CHARGES
(2R)-N-cyclopropyl-2-[(3-iodophenyl)amino]propanamide
@<TRIPOS>ATOM
      1 C1          3.0104   -2.9205   -1.4792 C.3       1 <0>        -0.1659
      2 C2          2.5177   -2.7897   -0.0366 C.3       1 <0>         0.1359
      3 H1          3.2273   -2.2102    0.5722 H         1 <0>         0.1035
      4 C3          2.3365   -4.1622    0.5588 C.2       1 <0>         0.5169
      5 O1          1.2454   -4.5111    0.9573 O.2       1 <0>        -0.5373
      6 N1          3.3868   -5.0019    0.6484 N.am      1 <0>        -0.7282
      7 C4          3.2107   -6.3362    1.2271 C.3       1 <0>        -0.0238
      8 C5          4.2772   -6.8271    2.2082 C.3       1 <0>        -0.1442
      9 C6          4.1964   -7.4264    0.8019 C.3       1 <0>        -0.1365
     10 N2          1.2375   -2.0775   -0.0205 N.pl3     1 <0>        -0.7409
     11 C7          1.2153   -0.6810   -0.0132 C.ar      1 <0>         0.2308
     12 C8          0.0021   -0.0041    0.0020 C.ar      1 <0>        -0.1764
     13 C9         -0.0167    1.3767    0.0096 C.ar      1 <0>        -0.0641
     14 C10         1.1705    2.0860    0.0021 C.ar      1 <0>        -0.1483
     15 C11         2.3803    1.4155   -0.0132 C.ar      1 <0>        -0.0476
     16 C12         2.4059    0.0340   -0.0208 C.ar      1 <0>        -0.1756
     17 I1          4.1753    2.4956   -0.0253 I         1 <0>        -0.0468
     18 H2          3.1426   -1.9187   -1.9137 H         1 <0>         0.0746
     19 H3          2.2712   -3.4816   -2.0697 H         1 <0>         0.0679
     20 H4          3.9716   -3.4552   -1.4913 H         1 <0>         0.0701
     21 H5          4.3763   -4.6854    0.2870 H         1 <0>         0.4082
     22 H6          2.1174   -6.2151    1.2383 H         1 <0>         0.1579
     23 H7          4.9217   -5.9850    2.5007 H         1 <0>         0.1041
     24 H8          3.7895   -7.2433    3.1020 H         1 <0>         0.1094
     25 H9          3.6419   -8.3378    0.5337 H         1 <0>         0.1102
     26 H10         4.7741   -7.0796   -0.0675 H         1 <0>         0.1042
     27 H11         0.2938   -2.6426   -0.0142 H         1 <0>         0.4332
     28 H12        -0.9255   -0.5572    0.0083 H         1 <0>         0.1271
     29 H13        -0.9596    1.9032    0.0169 H         1 <0>         0.1306
     30 H14         1.1529    3.1659    0.0077 H         1 <0>         0.1255
     31 H15         3.3506   -0.4892   -0.0330 H         1 <0>         0.1253
@<TRIPOS>BOND
     1    1    2 1
     2    1   18 1
     3    1   19 1
     4    1   20 1
     5    2    3 1
     6    2    4 1
     7    2   10 1
     8    4    5 2
     9    4    6 am
    10    6    7 1
    11    6   21 1
    12    7    9 1
    13    7    8 1
    14    7   22 1
    15    8    9 1
    16    8   23 1
    17    8   24 1
    18    9   25 1
    19    9   26 1
    20   10   11 1
    21   10   27 1
    22   11   16 ar
    23   11   12 ar
    24   12   13 ar
    25   12   28 1
    26   13   14 ar
    27   13   29 1
    28   14   15 ar
    29   14   30 1
    30   15   16 ar
    31   15   17 1
    32   16   31 1
