@<TRIPOS>MOLECULE
ZINC20323643
   48    51     0     0     0
SMALL
USER_CHARGES
(2Z)-2-(benzenesulfonylhydrazono)-N-(3,4-difluorophenyl)chromene-3-carboxamide
@<TRIPOS>ATOM
      1 C1         -4.7008    3.4114    5.3102 C.ar      1 <0>        -0.0419
      2 C2         -3.7152    4.3705    5.4499 C.ar      1 <0>        -0.1259
      3 C3         -3.3504    5.1493    4.3677 C.ar      1 <0>        -0.0094
      4 C4         -3.9709    4.9688    3.1457 C.ar      1 <0>        -0.6971
      5 C5         -4.9602    4.0133    3.0074 C.ar      1 <0>        -0.0486
      6 C6         -5.3220    3.2314    4.0885 C.ar      1 <0>        -0.1239
      7 S1         -3.5058    5.9616    1.7663 S.o2      1 <0>         2.6604
      8 O1         -3.0640    7.2057    2.2919 O.2       1 <0>        -0.8835
      9 O2         -4.5635    5.8659    0.8221 O.2       1 <0>        -0.9115
     10 N1         -2.1844    5.2454    1.0710 N.pl3     1 <0>        -0.9125
     11 N2         -2.2766    3.9394    0.5725 N.pl3     1 <0>        -0.3483
     12 C7         -1.2126    3.3375    0.1216 C.2       1 <0>         0.5123
     13 C8         -1.3064    2.0109   -0.5308 C.2       1 <0>        -0.2719
     14 C9         -0.3288    1.6876   -1.4412 C.2       1 <0>         0.1761
     15 C10         0.7165    2.6853   -1.6996 C.ar      1 <0>        -0.1721
     16 C11         1.5758    2.5518   -2.7946 C.ar      1 <0>        -0.0214
     17 C12         2.5478    3.5031   -3.0183 C.ar      1 <0>        -0.1137
     18 C13         2.6758    4.5881   -2.1653 C.ar      1 <0>        -0.0275
     19 C14         1.8337    4.7316   -1.0788 C.ar      1 <0>        -0.1115
     20 C15         0.8515    3.7860   -0.8354 C.ar      1 <0>         0.1158
     21 O3          0.0209    3.9116    0.2312 O.3       1 <0>        -0.2061
     22 C16        -2.3984    1.0756   -0.2135 C.2       1 <0>         0.5788
     23 O4         -2.3638   -0.0651   -0.6346 O.2       1 <0>        -0.4540
     24 N3         -3.4363    1.4834    0.5434 N.am      1 <0>        -0.6610
     25 C17        -4.4206    0.5682    0.9326 C.ar      1 <0>         0.1429
     26 C18        -5.7420    0.9783    1.0548 C.ar      1 <0>        -0.1228
     27 C19        -6.7130    0.0741    1.4385 C.ar      1 <0>        -0.0984
     28 C20        -6.3708   -1.2412    1.7020 C.ar      1 <0>         0.0766
     29 C21        -5.0525   -1.6539    1.5809 C.ar      1 <0>         0.0983
     30 C22        -4.0785   -0.7523    1.1913 C.ar      1 <0>        -0.1195
     31 F1         -4.7203   -2.9378    1.8384 F         1 <0>        -0.1131
     32 F2         -7.3223   -2.1235    2.0780 F         1 <0>        -0.1153
     33 H1         -4.9854    2.8024    6.1556 H         1 <0>         0.1440
     34 H2         -3.2299    4.5110    6.4045 H         1 <0>         0.1456
     35 H3         -2.5803    5.8987    4.4769 H         1 <0>         0.1475
     36 H4         -5.4480    3.8752    2.0538 H         1 <0>         0.1402
     37 H5         -6.0918    2.4819    3.9793 H         1 <0>         0.1451
     38 H6         -1.3466    5.7303    1.0089 H         1 <0>         0.4566
     39 H7         -0.3320    0.7357   -1.9513 H         1 <0>         0.2029
     40 H8          1.4786    1.7077   -3.4612 H         1 <0>         0.1633
     41 H9          3.2132    3.4027   -3.8630 H         1 <0>         0.1587
     42 H10         3.4405    5.3277   -2.3511 H         1 <0>         0.1627
     43 H11         1.9418    5.5804   -0.4198 H         1 <0>         0.1616
     44 H12        -3.5096    2.5357    0.8552 H         1 <0>         0.3700
     45 H13        -6.0102    2.0041    0.8495 H         1 <0>         0.1468
     46 H14        -7.7403    0.3935    1.5334 H         1 <0>         0.1628
     47 H15        -3.0523   -1.0741    1.0928 H         1 <0>         0.1612
     48 H16        -3.2473    3.4221    0.5618 H         1 <0>         0.4806
@<TRIPOS>BOND
     1    1    6 ar
     2    1    2 ar
     3    1   33 1
     4    2    3 ar
     5    2   34 1
     6    3    4 ar
     7    3   35 1
     8    4    5 ar
     9    4    7 1
    10    5    6 ar
    11    5   36 1
    12    6   37 1
    13    7    8 2
    14    7    9 2
    15    7   10 1
    16   10   11 1
    17   10   38 1
    18   11   12 2
    19   11   48 1
    20   12   21 1
    21   12   13 1
    22   13   14 2
    23   13   22 1
    24   14   15 1
    25   14   39 1
    26   15   20 ar
    27   15   16 ar
    28   16   17 ar
    29   16   40 1
    30   17   18 ar
    31   17   41 1
    32   18   19 ar
    33   18   42 1
    34   19   20 ar
    35   19   43 1
    36   20   21 1
    37   22   23 2
    38   22   24 am
    39   24   25 1
    40   24   44 1
    41   25   30 ar
    42   25   26 ar
    43   26   27 ar
    44   26   45 1
    45   27   28 ar
    46   27   46 1
    47   28   29 ar
    48   28   32 1
    49   29   30 ar
    50   29   31 1
    51   30   47 1
