@<TRIPOS>MOLECULE
ZINC16093131
   42    44     0     0     0
SMALL
USER_CHARGES
5-chloro-N-[[3-[[(5-chloro-2-thienyl)sulfonylamino]methyl]phenyl]methyl]thiophene-2-sulfonamide
@<TRIPOS>ATOM
      1 C1         -0.0126    1.0758    0.0080 C.ar      1 <0>        -0.1200
      2 C2         -1.2190    1.7506    0.0173 C.ar      1 <0>        -0.0879
      3 C3         -1.2377    3.1328    0.0299 C.ar      1 <0>        -0.1031
      4 C4         -0.0501    3.8402    0.0223 C.ar      1 <0>        -0.0815
      5 C5          1.1563    3.1654    0.0076 C.ar      1 <0>        -0.1043
      6 C6          1.1750    1.7832    0.0004 C.ar      1 <0>        -0.0911
      7 C7          2.4510    3.9366   -0.0011 C.3       1 <0>         0.1548
      8 N1          2.8571    4.1935   -1.3851 N.pl3     1 <0>        -1.1086
      9 S1          4.0232    5.3236   -1.7096 S.o2      1 <0>         2.7277
     10 O1          4.2105    5.3209   -3.1182 O.2       1 <0>        -0.9428
     11 O2          3.6640    6.4958   -0.9911 O.2       1 <0>        -0.9421
     12 C8          5.5267    4.7392   -1.0006 C.2       1 <0>        -0.7655
     13 C9          6.4856    3.9597   -1.5564 C.2       1 <0>         0.0061
     14 C10         7.5951    3.6217   -0.8035 C.2       1 <0>        -0.1757
     15 C11         7.6900    4.0809    0.4694 C.2       1 <0>        -0.0846
     16 S2          6.1851    5.0272    0.6336 S.3       1 <0>         0.2204
     17 Cl1         8.9512    3.8220    1.6339 Cl        1 <0>         0.0379
     18 C12        -2.5528    3.8685    0.0454 C.3       1 <0>         0.1540
     19 N2         -2.9917    4.1134   -1.3307 N.pl3     1 <0>        -1.1088
     20 S3         -4.5564    4.5633   -1.6331 S.o2      1 <0>         2.7284
     21 O3         -4.6613    4.7489   -3.0380 O.2       1 <0>        -0.9429
     22 O4         -5.3851    3.6549   -0.9208 O.2       1 <0>        -0.9422
     23 C13        -4.7950    6.1461   -0.8968 C.2       1 <0>        -0.7660
     24 C14        -4.6046    7.3750   -1.4352 C.2       1 <0>         0.0066
     25 C15        -4.8592    8.4928   -0.6622 C.2       1 <0>        -0.1754
     26 C16        -5.2921    8.3254    0.6125 C.2       1 <0>        -0.0843
     27 S4         -5.3578    6.5466    0.7494 S.3       1 <0>         0.2199
     28 Cl2        -5.6870    9.5287    1.7999 Cl        1 <0>         0.0376
     29 H1          0.0021   -0.0041    0.0020 H         1 <0>         0.1289
     30 H2         -2.1469    1.1980    0.0187 H         1 <0>         0.1298
     31 H3         -0.0647    4.9201    0.0276 H         1 <0>         0.1304
     32 H4          2.1175    1.2560   -0.0115 H         1 <0>         0.1270
     33 H5          2.3128    4.8845    0.5189 H         1 <0>         0.0930
     34 H6          3.2235    3.3553    0.5023 H         1 <0>         0.0776
     35 H7          2.4429    3.7016   -2.1113 H         1 <0>         0.4239
     36 H8          6.3847    3.6073   -2.5723 H         1 <0>         0.1581
     37 H9          8.3738    3.0014   -1.2223 H         1 <0>         0.1553
     38 H10        -3.2997    3.2667    0.5633 H         1 <0>         0.0940
     39 H11        -2.4307    4.8201    0.5626 H         1 <0>         0.0781
     40 H12        -2.3656    4.0121   -2.0647 H         1 <0>         0.4238
     41 H13        -4.2588    7.4797   -2.4530 H         1 <0>         0.1583
     42 H14        -4.7153    9.4838   -1.0669 H         1 <0>         0.1555
@<TRIPOS>BOND
     1    1    6 ar
     2    1    2 ar
     3    1   29 1
     4    2    3 ar
     5    2   30 1
     6    3    4 ar
     7    3   18 1
     8    4    5 ar
     9    4   31 1
    10    5    6 ar
    11    5    7 1
    12    6   32 1
    13    7    8 1
    14    7   33 1
    15    7   34 1
    16    8    9 1
    17    8   35 1
    18    9   10 2
    19    9   11 2
    20    9   12 1
    21   12   16 1
    22   12   13 2
    23   13   14 1
    24   13   36 1
    25   14   15 2
    26   14   37 1
    27   15   16 1
    28   15   17 1
    29   18   19 1
    30   18   38 1
    31   18   39 1
    32   19   20 1
    33   19   40 1
    34   20   21 2
    35   20   22 2
    36   20   23 1
    37   23   27 1
    38   23   24 2
    39   24   25 1
    40   24   41 1
    41   25   26 2
    42   25   42 1
    43   26   27 1
    44   26   28 1
