@<TRIPOS>MOLECULE
ZINC00903775
   65    69     0     0     0
SMALL
USER_CHARGES

@<TRIPOS>ATOM
      1 C1         -3.6433    2.6559   -1.2667 C.ar      1 <0>        -0.0646
      2 C2         -2.8289    3.7563   -1.0928 C.ar      1 <0>        -0.1114
      3 C3         -1.6088    3.6230   -0.4524 C.ar      1 <0>        -0.0187
      4 C4         -1.1995    2.3863    0.0160 C.ar      1 <0>        -0.1121
      5 C5         -2.0069    1.2800   -0.1536 C.ar      1 <0>        -0.0676
      6 C6         -3.2359    1.4094   -0.7966 C.ar      1 <0>        -0.0082
      7 C7         -4.1086    0.2226   -0.9807 C.2       1 <0>         0.2114
      8 N1         -5.3064    0.1951   -1.5818 N.2       1 <0>        -0.2650
      9 N2         -5.7313   -1.0218   -1.5333 N.2       1 <0>        -0.0431
     10 N3         -4.8543   -1.7470   -0.9315 N.pl3     1 <0>        -0.1269
     11 N4         -3.8537   -1.0102   -0.5899 N.2       1 <0>        -0.2826
     12 C8         -4.9730   -3.1852   -0.6790 C.3       1 <0>         0.1168
     13 C9         -4.3831   -3.9488   -1.8365 C.2       1 <0>         0.5284
     14 O1         -3.9451   -3.3515   -2.7969 O.2       1 <0>        -0.4917
     15 N5         -4.3422   -5.2956   -1.8045 N.am      1 <0>        -0.5470
     16 C10        -4.9729   -5.9904   -0.7660 C.ar      1 <0>         0.1192
     17 C11        -4.4326   -5.9703    0.5131 C.ar      1 <0>        -0.1147
     18 C12        -5.0569   -6.6567    1.5361 C.ar      1 <0>        -0.0958
     19 C13        -6.2199   -7.3643    1.2873 C.ar      1 <0>        -0.0248
     20 C14        -6.7604   -7.3860    0.0136 C.ar      1 <0>        -0.0943
     21 C15        -6.1432   -6.6965   -1.0116 C.ar      1 <0>        -0.0897
     22 Cl1        -7.0018   -8.2266    2.5752 Cl        1 <0>        -0.0563
     23 C16        -3.6376   -6.0322   -2.8567 C.3       1 <0>         0.1821
     24 H1         -4.0155   -5.7240   -3.8315 H         1 <0>         0.1212
     25 C17        -3.8659   -7.5106   -2.6739 C.ar      1 <0>        -0.1222
     26 C18        -3.5442   -8.1159   -1.4734 C.ar      1 <0>        -0.0582
     27 C19        -3.7536   -9.4715   -1.3045 C.ar      1 <0>        -0.1488
     28 C20        -4.2857  -10.2234   -2.3383 C.ar      1 <0>         0.1202
     29 C21        -4.6074   -9.6160   -3.5402 C.ar      1 <0>        -0.1509
     30 C22        -4.4021   -8.2593   -3.7050 C.ar      1 <0>        -0.0656
     31 F1         -4.4903  -11.5487   -2.1745 F         1 <0>        -0.1339
     32 C23        -2.1619   -5.7378   -2.7740 C.2       1 <0>         0.5133
     33 O2         -1.7403   -4.9867   -1.9203 O.2       1 <0>        -0.5209
     34 N6         -1.3107   -6.3093   -3.6488 N.am      1 <0>        -0.7154
     35 C24         0.1238   -6.0231   -3.5685 C.3       1 <0>         0.1252
     36 C25         0.8597   -6.7925   -4.6673 C.3       1 <0>         0.0671
     37 H2          0.4828   -6.5030   -5.6483 H         1 <0>         0.0796
     38 C26         2.3843   -6.5309   -4.5783 C.3       1 <0>        -0.1484
     39 C27         2.9430   -7.8087   -5.2618 C.3       1 <0>        -0.1557
     40 C28         1.9195   -8.8827   -4.8350 C.3       1 <0>         0.0505
     41 O3          0.7078   -8.2075   -4.4726 O.3       1 <0>        -0.3771
     42 Cl2        -0.5886    5.0109   -0.2367 Cl        1 <0>        -0.0622
     43 H3         -4.5969    2.7617   -1.7625 H         1 <0>         0.1463
     44 H4         -3.1436    4.7230   -1.4573 H         1 <0>         0.1430
     45 H5         -0.2467    2.2870    0.5147 H         1 <0>         0.1418
     46 H6         -1.6864    0.3154    0.2116 H         1 <0>         0.1425
     47 H7         -4.4363   -3.4391    0.2351 H         1 <0>         0.1485
     48 H8         -6.0248   -3.4490   -0.5680 H         1 <0>         0.1498
     49 H9         -3.5248   -5.4185    0.7077 H         1 <0>         0.1435
     50 H10        -4.6369   -6.6417    2.5309 H         1 <0>         0.1439
     51 H11        -7.6679   -7.9392   -0.1780 H         1 <0>         0.1425
     52 H12        -6.5678   -6.7101   -2.0046 H         1 <0>         0.1399
     53 H13        -3.1289   -7.5293   -0.6673 H         1 <0>         0.1342
     54 H14        -3.5019   -9.9443   -0.3667 H         1 <0>         0.1387
     55 H15        -5.0222  -10.2015   -4.3474 H         1 <0>         0.1421
     56 H16        -4.6571   -7.7845   -4.6409 H         1 <0>         0.1391
     57 H17        -1.6479   -6.9101   -4.3316 H         1 <0>         0.4054
     58 H18         0.2889   -4.9539   -3.7006 H         1 <0>         0.0829
     59 H19         0.5018   -6.3314   -2.5937 H         1 <0>         0.0760
     60 H20         2.6623   -5.6350   -5.1333 H         1 <0>         0.0887
     61 H21         2.7117   -6.4653   -3.5407 H         1 <0>         0.0839
     62 H22         2.9564   -7.6945   -6.3457 H         1 <0>         0.0790
     63 H23         3.9369   -8.0479   -4.8836 H         1 <0>         0.0856
     64 H24         1.7284   -9.5621   -5.6657 H         1 <0>         0.0706
     65 H25         2.3032   -9.4403   -3.9805 H         1 <0>         0.0710
@<TRIPOS>BOND
     1    1    6 ar
     2    1    2 ar
     3    1   43 1
     4    2    3 ar
     5    2   44 1
     6    3    4 ar
     7    3   42 1
     8    4    5 ar
     9    4   45 1
    10    5    6 ar
    11    5   46 1
    12    6    7 1
    13    7   11 2
    14    7    8 1
    15    8    9 2
    16    9   10 1
    17   10   11 1
    18   10   12 1
    19   12   13 1
    20   12   47 1
    21   12   48 1
    22   13   14 2
    23   13   15 am
    24   15   16 1
    25   15   23 1
    26   16   21 ar
    27   16   17 ar
    28   17   18 ar
    29   17   49 1
    30   18   19 ar
    31   18   50 1
    32   19   20 ar
    33   19   22 1
    34   20   21 ar
    35   20   51 1
    36   21   52 1
    37   23   24 1
    38   23   25 1
    39   23   32 1
    40   25   30 ar
    41   25   26 ar
    42   26   27 ar
    43   26   53 1
    44   27   28 ar
    45   27   54 1
    46   28   29 ar
    47   28   31 1
    48   29   30 ar
    49   29   55 1
    50   30   56 1
    51   32   33 2
    52   32   34 am
    53   34   35 1
    54   34   57 1
    55   35   36 1
    56   35   58 1
    57   35   59 1
    58   36   37 1
    59   36   41 1
    60   36   38 1
    61   38   39 1
    62   38   60 1
    63   38   61 1
    64   39   40 1
    65   39   62 1
    66   39   63 1
    67   40   41 1
    68   40   64 1
    69   40   65 1
