@<TRIPOS>MOLECULE
ZINC20135646
   36    38     0     0     0
SMALL
USER_CHARGES

@<TRIPOS>ATOM
      1 C1         -0.0167    1.3780    0.0096 C.ar      1 <0>        -0.1273
      2 C2          1.1706    2.0866    0.0021 C.ar      1 <0>        -0.0946
      3 C3          2.3773    1.4137   -0.0131 C.ar      1 <0>        -0.1599
      4 C4          2.3974    0.0291   -0.0207 C.ar      1 <0>         0.1037
      5 C5          1.2080   -0.6793   -0.0132 C.ar      1 <0>        -0.1327
      6 C6          0.0021   -0.0041    0.0020 C.ar      1 <0>        -0.0670
      7 C7          1.2281   -2.1862   -0.0220 C.3       1 <0>         0.2013
      8 H1          2.0248   -2.5493    0.6273 H         1 <0>         0.1030
      9 C8          1.4488   -2.6960   -1.4527 C.3       1 <0>        -0.1719
     10 C9          0.2055   -2.4364   -2.2628 C.2       1 <0>         0.4614
     11 O1          0.3142   -2.2533   -3.5885 O.3       1 <0>        -0.6420
     12 N1         -0.9717   -2.3856   -1.7097 N.2       1 <0>        -0.6358
     13 C10        -1.1547   -2.5374   -0.3873 C.2       1 <0>         0.6613
     14 N2         -0.0702   -2.7064    0.4406 N.pl3     1 <0>        -0.7484
     15 N3         -2.3817   -2.5237    0.1200 N.2       1 <0>        -0.6976
     16 C11        -3.4375   -2.3587   -0.6863 C.2       1 <0>         0.5095
     17 O2         -3.2726   -2.2210   -1.8855 O.2       1 <0>        -0.5072
     18 C12        -4.8062   -2.3436   -0.1205 C.ar      1 <0>        -0.0778
     19 C13        -4.9979   -2.4952    1.2531 C.ar      1 <0>        -0.0632
     20 C14        -6.2749   -2.4799    1.7749 C.ar      1 <0>        -0.1282
     21 C15        -7.3651   -2.3144    0.9393 C.ar      1 <0>        -0.1058
     22 C16        -7.1821   -2.1634   -0.4247 C.ar      1 <0>        -0.0481
     23 C17        -5.9080   -2.1718   -0.9580 C.ar      1 <0>        -0.0701
     24 Cl1        -8.5559   -1.9570   -1.4657 Cl        1 <0>        -0.0813
     25 F1          3.5766   -0.6299   -0.0360 F         1 <0>        -0.1398
     26 H2         -0.9594    1.9048    0.0260 H         1 <0>         0.1270
     27 H3          1.1547    3.1665    0.0077 H         1 <0>         0.1293
     28 H4          3.3046    1.9675   -0.0193 H         1 <0>         0.1326
     29 H5         -0.9259   -0.5565    0.0083 H         1 <0>         0.1452
     30 H6          2.2924   -2.1710   -1.9010 H         1 <0>         0.0888
     31 H7          1.6533   -3.7664   -1.4311 H         1 <0>         0.0907
     32 H8         -0.1558   -3.1525    1.2976 H         1 <0>         0.4027
     33 H9         -4.1480   -2.6248    1.9067 H         1 <0>         0.1442
     34 H10        -6.4239   -2.5976    2.8381 H         1 <0>         0.1297
     35 H11        -8.3628   -2.3035    1.3526 H         1 <0>         0.1278
     36 H12        -5.7656   -2.0498   -2.0215 H         1 <0>         0.1404
@<TRIPOS>BOND
     1    1    6 ar
     2    1    2 ar
     3    1   26 1
     4    2    3 ar
     5    2   27 1
     6    3    4 ar
     7    3   28 1
     8    4    5 ar
     9    4   25 1
    10    5    6 ar
    11    5    7 1
    12    6   29 1
    13    7    8 1
    14    7   14 1
    15    7    9 1
    16    9   10 1
    17    9   30 1
    18    9   31 1
    19   10   11 1
    20   10   12 2
    21   12   13 1
    22   13   14 1
    23   13   15 2
    24   14   32 1
    25   15   16 1
    26   16   17 2
    27   16   18 1
    28   18   23 ar
    29   18   19 ar
    30   19   20 ar
    31   19   33 1
    32   20   21 ar
    33   20   34 1
    34   21   22 ar
    35   21   35 1
    36   22   23 ar
    37   22   24 1
    38   23   36 1
