@<TRIPOS>MOLECULE
ZINC01592908
   39    42     0     0     0
SMALL
USER_CHARGES
(4-chlorophenyl)-dimethyl-BLAHdione
@<TRIPOS>ATOM
      1 C1         -3.1341    1.8672    7.0697 C.3       1 <0>        -0.1136
      2 C2         -1.7624    2.2612    6.5857 C.ar      1 <0>        -0.1003
      3 C3         -0.7813    2.6129    7.4947 C.ar      1 <0>        -0.0672
      4 C4          0.4759    2.9738    7.0570 C.ar      1 <0>        -0.1288
      5 C5          0.7676    2.9877    5.6954 C.ar      1 <0>         0.1548
      6 C6         -0.2289    2.6331    4.7882 C.ar      1 <0>        -0.1462
      7 C7         -1.4820    2.2724    5.2311 C.ar      1 <0>        -0.0386
      8 C8          0.4000    2.7527    3.4350 C.3       1 <0>         0.2084
      9 C9          1.8107    3.1953    3.6801 C.2       1 <0>         0.5501
     10 O1          2.6619    3.4075    2.8425 O.2       1 <0>        -0.4511
     11 N1          1.9459    3.3110    5.0174 N.am      1 <0>        -0.6539
     12 N2         -0.3328    3.6315    2.5293 N.am      1 <0>        -0.5440
     13 C10        -1.0466    3.0878    1.5433 C.2       1 <0>         0.5209
     14 O2         -1.6645    3.7761    0.7587 O.2       1 <0>        -0.4821
     15 C11        -1.0551    1.5693    1.4393 C.3       1 <0>        -0.0599
     16 H1         -1.9890    1.1533    1.8173 H         1 <0>         0.1439
     17 S1          0.3615    1.1475    2.5475 S.3       1 <0>        -0.1817
     18 C12        -0.7904    1.1113    0.0036 C.3       1 <0>        -0.1279
     19 C13        -0.2882    5.0208    2.6936 C.ar      1 <0>         0.1233
     20 C14        -1.1616    5.6455    3.5740 C.ar      1 <0>        -0.0841
     21 C15        -1.1120    7.0159    3.7382 C.ar      1 <0>        -0.1037
     22 C16        -0.2002    7.7676    3.0180 C.ar      1 <0>        -0.0210
     23 C17         0.6678    7.1481    2.1361 C.ar      1 <0>        -0.1020
     24 C18         0.6258    5.7775    1.9721 C.ar      1 <0>        -0.0818
     25 Cl1        -0.1457    9.4909    3.2209 Cl        1 <0>        -0.0582
     26 H2         -3.7659    2.7532    7.1318 H         1 <0>         0.0735
     27 H3         -3.5748    1.1548    6.3722 H         1 <0>         0.0693
     28 H4         -3.0538    1.4084    8.0552 H         1 <0>         0.0716
     29 H5         -1.0004    2.6046    8.5522 H         1 <0>         0.1382
     30 H6          1.2369    3.2470    7.7729 H         1 <0>         0.1344
     31 H7         -2.2471    1.9985    4.5197 H         1 <0>         0.1272
     32 H8          2.7656    3.5862    5.4571 H         1 <0>         0.4239
     33 H9         -0.7369    0.0230   -0.0265 H         1 <0>         0.0818
     34 H10         0.1536    1.5312   -0.3435 H         1 <0>         0.0746
     35 H11        -1.5994    1.4533   -0.6419 H         1 <0>         0.0894
     36 H12        -1.8766    5.0597    4.1327 H         1 <0>         0.1358
     37 H13        -1.7883    7.5017    4.4258 H         1 <0>         0.1428
     38 H14         1.3784    7.7371    1.5752 H         1 <0>         0.1432
     39 H15         1.3029    5.2945    1.2832 H         1 <0>         0.1390
@<TRIPOS>BOND
     1    1    2 1
     2    1   26 1
     3    1   27 1
     4    1   28 1
     5    2    7 ar
     6    2    3 ar
     7    3    4 ar
     8    3   29 1
     9    4    5 ar
    10    4   30 1
    11    5   11 1
    12    5    6 ar
    13    6    7 ar
    14    6    8 1
    15    7   31 1
    16    8   17 1
    17    8    9 1
    18    8   12 1
    19    9   10 2
    20    9   11 am
    21   11   32 1
    22   12   13 am
    23   12   19 1
    24   13   14 2
    25   13   15 1
    26   15   16 1
    27   15   17 1
    28   15   18 1
    29   18   33 1
    30   18   34 1
    31   18   35 1
    32   19   24 ar
    33   19   20 ar
    34   20   21 ar
    35   20   36 1
    36   21   22 ar
    37   21   37 1
    38   22   23 ar
    39   22   25 1
    40   23   24 ar
    41   23   38 1
    42   24   39 1
