@<TRIPOS>MOLECULE
ZINC16130713
   37    39     0     0     0
SMALL
USER_CHARGES
2,3,4-trifluoro-N-tetralin-5-yl-benzenesulfonamide
@<TRIPOS>ATOM
      1 C1         -1.5208    4.9503   -2.2301 C.ar      1 <0>        -0.1077
      2 C2         -1.3764    3.5791   -2.1674 C.ar      1 <0>        -0.1079
      3 C3         -1.1171    2.9476   -0.9574 C.ar      1 <0>        -0.0681
      4 C4         -0.9988    3.6959    0.1909 C.ar      1 <0>        -0.0722
      5 C5         -1.1464    5.0820    0.1297 C.ar      1 <0>         0.1148
      6 C6         -1.4073    5.7067   -1.0804 C.ar      1 <0>        -0.1029
      7 N1         -1.0311    5.8447    1.2941 N.pl3     1 <0>        -1.0517
      8 S1         -2.3462    6.6609    1.8829 S.o2      1 <0>         2.6935
      9 O1         -1.9135    7.3357    3.0562 O.2       1 <0>        -0.9396
     10 O2         -2.9264    7.3450    0.7808 O.2       1 <0>        -0.9275
     11 C7         -3.5201    5.4532    2.4005 C.ar      1 <0>        -0.7104
     12 C8         -3.8553    5.3441    3.7373 C.ar      1 <0>         0.0294
     13 C9         -4.7764    4.3982    4.1457 C.ar      1 <0>        -0.1557
     14 C10        -5.3655    3.5578    3.2164 C.ar      1 <0>         0.1574
     15 C11        -5.0305    3.6652    1.8760 C.ar      1 <0>         0.0147
     16 C12        -4.1103    4.6181    1.4677 C.ar      1 <0>         0.2019
     17 F1         -3.7865    4.7288    0.1607 F         1 <0>        -0.0909
     18 F2         -5.6042    2.8460    0.9677 F         1 <0>        -0.1085
     19 F3         -6.2659    2.6333    3.6161 F         1 <0>        -0.1059
     20 C13        -0.7099    3.0799    1.5348 C.3       1 <0>        -0.0829
     21 C14        -1.0027    1.5812    1.5133 C.3       1 <0>        -0.1210
     22 C15        -0.2838    0.9656    0.3070 C.3       1 <0>        -0.1201
     23 C16        -0.9773    1.4477   -0.9656 C.3       1 <0>        -0.0824
     24 H1         -1.7225    5.4306   -3.1762 H         1 <0>         0.1311
     25 H2         -1.4659    2.9908   -3.0687 H         1 <0>         0.1260
     26 H3         -1.5208    6.7799   -1.1236 H         1 <0>         0.1391
     27 H4         -0.1807    5.8962    1.7579 H         1 <0>         0.4285
     28 H5         -3.3970    5.9992    4.4633 H         1 <0>         0.1738
     29 H6         -5.0373    4.3148    5.1904 H         1 <0>         0.1680
     30 H7          0.3396    3.2370    1.7840 H         1 <0>         0.0820
     31 H8         -1.3340    3.5569    2.2905 H         1 <0>         0.0678
     32 H9         -2.0767    1.4188    1.4229 H         1 <0>         0.0631
     33 H10        -0.6374    1.1221    2.4320 H         1 <0>         0.0707
     34 H11        -0.3360   -0.1216    0.3641 H         1 <0>         0.0699
     35 H12         0.7589    1.2832    0.2997 H         1 <0>         0.0677
     36 H13        -0.3885    1.1463   -1.8319 H         1 <0>         0.0782
     37 H14        -1.9667    0.9949   -1.0292 H         1 <0>         0.0776
@<TRIPOS>BOND
     1    1    6 ar
     2    1    2 ar
     3    1   24 1
     4    2    3 ar
     5    2   25 1
     6    3   23 1
     7    3    4 ar
     8    4    5 ar
     9    4   20 1
    10    5    6 ar
    11    5    7 1
    12    6   26 1
    13    7    8 1
    14    7   27 1
    15    8    9 2
    16    8   10 2
    17    8   11 1
    18   11   16 ar
    19   11   12 ar
    20   12   13 ar
    21   12   28 1
    22   13   14 ar
    23   13   29 1
    24   14   15 ar
    25   14   19 1
    26   15   16 ar
    27   15   18 1
    28   16   17 1
    29   20   21 1
    30   20   30 1
    31   20   31 1
    32   21   22 1
    33   21   32 1
    34   21   33 1
    35   22   23 1
    36   22   34 1
    37   22   35 1
    38   23   36 1
    39   23   37 1
