@<TRIPOS>MOLECULE
ZINC20477235
   55    58     0     0     0
SMALL
USER_CHARGES
(3S)-N-[[4-[(2,6-dichlorophenyl)methoxy]-3-methoxy-phenyl]methyl]quinuclidin-3-amine
@<TRIPOS>ATOM
      1 C1          1.2479    2.0217    0.0010 C.3       1 <0>         0.0246
      2 O1         -0.0164    1.3557    0.0095 O.3       1 <0>        -0.3015
      3 C2          0.0021   -0.0041    0.0020 C.ar      1 <0>         0.1024
      4 C3          1.2104   -0.6820   -0.0189 C.ar      1 <0>        -0.1511
      5 C4          1.2274   -2.0643   -0.0211 C.ar      1 <0>        -0.0942
      6 C5          0.0406   -2.7733   -0.0131 C.ar      1 <0>        -0.1050
      7 C6         -1.1684   -2.1031    0.0020 C.ar      1 <0>        -0.1725
      8 C7         -1.1925   -0.7177    0.0096 C.ar      1 <0>         0.1164
      9 O2         -2.3810   -0.0568    0.0240 O.3       1 <0>        -0.2863
     10 C8         -3.5667   -0.8544    0.0311 C.3       1 <0>         0.0925
     11 C9         -4.7764    0.0442    0.0469 C.ar      1 <0>        -0.0849
     12 C10        -5.3241    0.4461    1.2519 C.ar      1 <0>        -0.0034
     13 C11        -6.4322    1.2746    1.2657 C.ar      1 <0>        -0.1073
     14 C12        -6.9976    1.6929    0.0758 C.ar      1 <0>        -0.0794
     15 C13        -6.4540    1.2873   -1.1285 C.ar      1 <0>        -0.1078
     16 C14        -5.3430    0.4627   -1.1437 C.ar      1 <0>        -0.0031
     17 Cl1        -4.6607   -0.0469   -2.6564 Cl        1 <0>        -0.0487
     18 Cl2        -4.6181   -0.0845    2.7464 Cl        1 <0>        -0.0467
     19 C15         2.5425   -2.8000   -0.0381 C.3       1 <0>         0.0939
     20 N1          2.9561   -3.0316   -1.4285 N.3       1 <0>        -0.6672
     21 C16         4.2373   -3.7483   -1.4842 C.3       1 <0>         0.0596
     22 H1          4.2475   -4.4500   -0.6371 H         1 <0>         0.0817
     23 C17         5.3907   -2.7465   -1.3783 C.3       1 <0>         0.0035
     24 N2          6.2223   -2.8314   -2.5863 N.4       1 <0>        -0.3917
     25 C18         5.4500   -2.4761   -3.7849 C.3       1 <0>         0.0018
     26 C19         4.2978   -3.4695   -3.9591 C.3       1 <0>        -0.1351
     27 C20         4.3510   -4.4947   -2.8193 C.3       1 <0>        -0.0998
     28 C21         5.7078   -5.2088   -2.8665 C.3       1 <0>        -0.1401
     29 C22         6.8204   -4.1666   -2.7228 C.3       1 <0>        -0.0034
     30 H2          1.0890    3.1101    0.0084 H         1 <0>         0.1047
     31 H3          1.8053    1.7386   -0.9041 H         1 <0>         0.0530
     32 H4          1.8225    1.7290    0.8921 H         1 <0>         0.0546
     33 H5          2.1389   -0.1305   -0.0297 H         1 <0>         0.1322
     34 H6          0.0580   -3.8532   -0.0191 H         1 <0>         0.1245
     35 H7         -2.0942   -2.6593    0.0082 H         1 <0>         0.1367
     36 H8         -3.5899   -1.4848   -0.8700 H         1 <0>         0.0825
     37 H9         -3.5732   -1.4938    0.9261 H         1 <0>         0.0828
     38 H10        -6.8574    1.5918    2.2064 H         1 <0>         0.1464
     39 H11        -7.8648    2.3365    0.0871 H         1 <0>         0.1488
     40 H12        -6.8962    1.6145   -2.0579 H         1 <0>         0.1461
     41 H13         3.3061   -2.1979    0.4762 H         1 <0>         0.0804
     42 H14         2.4292   -3.7656    0.4764 H         1 <0>         0.0510
     43 H15         2.1925   -3.6337   -1.9427 H         1 <0>         0.3603
     44 H16         4.9847   -1.7287   -1.2823 H         1 <0>         0.1387
     45 H17         6.0014   -2.9825   -0.4943 H         1 <0>         0.1270
     46 H18         5.0452   -1.4595   -3.6722 H         1 <0>         0.1303
     47 H19         6.1050   -2.5142   -4.6678 H         1 <0>         0.1265
     48 H20         3.3401   -2.9291   -3.9295 H         1 <0>         0.1082
     49 H21         4.3993   -3.9828   -4.9267 H         1 <0>         0.0957
     50 H22         3.5323   -5.2223   -2.9212 H         1 <0>         0.1143
     51 H23         5.7689   -5.9348   -2.0423 H         1 <0>         0.0986
     52 H24         5.8121   -5.7348   -3.8269 H         1 <0>         0.1025
     53 H25         7.4641   -4.1906   -3.6145 H         1 <0>         0.1305
     54 H26         7.4222   -4.3919   -1.8300 H         1 <0>         0.1289
     55 H27         7.0404   -2.1034   -2.4829 H         1 <0>         0.4476
@<TRIPOS>BOND
     1    1    2 1
     2    1   30 1
     3    1   31 1
     4    1   32 1
     5    2    3 1
     6    3    8 ar
     7    3    4 ar
     8    4    5 ar
     9    4   33 1
    10    5    6 ar
    11    5   19 1
    12    6    7 ar
    13    6   34 1
    14    7    8 ar
    15    7   35 1
    16    8    9 1
    17    9   10 1
    18   10   11 1
    19   10   36 1
    20   10   37 1
    21   11   16 ar
    22   11   12 ar
    23   12   13 ar
    24   12   18 1
    25   13   14 ar
    26   13   38 1
    27   14   15 ar
    28   14   39 1
    29   15   16 ar
    30   15   40 1
    31   16   17 1
    32   19   20 1
    33   19   41 1
    34   19   42 1
    35   20   21 1
    36   20   43 1
    37   21   22 1
    38   21   27 1
    39   21   23 1
    40   23   24 1
    41   23   44 1
    42   23   45 1
    43   24   29 1
    44   24   25 1
    45   24   55 1
    46   25   26 1
    47   25   46 1
    48   25   47 1
    49   26   27 1
    50   26   48 1
    51   26   49 1
    52   27   28 1
    53   27   50 1
    54   28   29 1
    55   28   51 1
    56   28   52 1
    57   29   53 1
    58   29   54 1
