@<TRIPOS>MOLECULE
ZINC01187048
   46    51     0     0     0
SMALL
USER_CHARGES

@<TRIPOS>ATOM
      1 C1         -0.0170    1.3780    0.0112 C.ar      1 <0>        -0.1161
      2 C2          0.1524    0.2844   -0.8180 C.ar      1 <0>        -0.1002
      3 C3          1.3575   -0.3901   -0.8362 C.ar      1 <0>        -0.1019
      4 C4          2.3996    0.0309   -0.0206 C.ar      1 <0>         0.1283
      5 C5          2.2263    1.1295    0.8110 C.ar      1 <0>        -0.1269
      6 C6          1.0188    1.7998    0.8246 C.ar      1 <0>        -0.1021
      7 N1          3.6216   -0.6506   -0.0363 N.am      1 <0>        -0.3746
      8 C7          3.6277   -2.0121    0.0544 C.2       1 <0>         0.5393
      9 O1          2.6183   -2.6643    0.2177 O.2       1 <0>        -0.4754
     10 C8          4.9995   -2.6406   -0.0661 C.3       1 <0>        -0.0921
     11 H1          5.5643   -2.4904    0.8540 H         1 <0>         0.1241
     12 C9          5.6575   -1.8730   -1.2268 C.3       1 <0>        -0.1221
     13 H2          4.8571   -1.8024   -1.9633 H         1 <0>         0.1024
     14 C10         6.7285   -2.6885   -1.9189 C.3       1 <0>         0.0266
     15 C11         5.8092   -3.6156   -2.7426 C.ar      1 <0>        -0.0878
     16 C12         5.8751   -3.7767   -4.0895 C.ar      1 <0>        -0.1023
     17 C13         4.9504   -4.6177   -4.7012 C.ar      1 <0>        -0.1140
     18 C14         3.9926   -5.2606   -3.9392 C.ar      1 <0>        -0.1204
     19 C15         3.9474   -5.0967   -2.5628 C.ar      1 <0>        -0.0976
     20 C16         4.8745   -4.2848   -1.9570 C.ar      1 <0>        -0.0853
     21 C17         4.9771   -4.1363   -0.4376 C.3       1 <0>         0.0213
     22 C18         6.4584   -4.4659   -0.1909 C.ar      1 <0>        -0.0889
     23 C19         7.3492   -3.6717   -0.9357 C.ar      1 <0>        -0.0812
     24 C20         8.7018   -3.8176   -0.7663 C.ar      1 <0>        -0.0983
     25 C21         9.1676   -4.7700    0.1287 C.ar      1 <0>        -0.1182
     26 C22         8.2868   -5.5641    0.8394 C.ar      1 <0>        -0.1164
     27 C23         6.9071   -5.4067    0.6843 C.ar      1 <0>        -0.1022
     28 C24         5.8854   -0.4712   -0.8087 C.2       1 <0>         0.5520
     29 O2          6.9153    0.1300   -1.0299 O.2       1 <0>        -0.4882
     30 N2          4.8168    0.0822   -0.1512 N.am      1 <0>        -0.5292
     31 H3         -0.9587    1.9066    0.0203 H         1 <0>         0.1296
     32 H4         -0.6586   -0.0427   -1.4517 H         1 <0>         0.1323
     33 H5          1.4890   -1.2444   -1.4837 H         1 <0>         0.1278
     34 H6          3.0347    1.4592    1.4467 H         1 <0>         0.1262
     35 H7          0.8835    2.6545    1.4708 H         1 <0>         0.1318
     36 H8          7.4495   -2.1026   -2.4889 H         1 <0>         0.1283
     37 H9          6.6266   -3.2642   -4.6718 H         1 <0>         0.1307
     38 H10         4.9807   -4.7677   -5.7703 H         1 <0>         0.1261
     39 H11         3.2688   -5.8997   -4.4230 H         1 <0>         0.1236
     40 H12         3.1937   -5.6005   -1.9758 H         1 <0>         0.1284
     41 H13         4.2671   -4.7285    0.1397 H         1 <0>         0.1298
     42 H14         9.3937   -3.2007   -1.3204 H         1 <0>         0.1287
     43 H15        10.2310   -4.8927    0.2717 H         1 <0>         0.1240
     44 H16         8.6647   -6.3109    1.5220 H         1 <0>         0.1246
     45 H17         6.2128   -6.0095    1.2508 H         1 <0>         0.1303
     46 H18         4.8868    0.9700    0.2332 H         1 <0>         0.4254
@<TRIPOS>BOND
     1    1    6 ar
     2    1    2 ar
     3    1   31 1
     4    2    3 ar
     5    2   32 1
     6    3    4 ar
     7    3   33 1
     8    4    5 ar
     9    4    7 1
    10    5    6 ar
    11    5   34 1
    12    6   35 1
    13    7   30 1
    14    7    8 am
    15    8    9 2
    16    8   10 1
    17   10   11 1
    18   10   21 1
    19   10   12 1
    20   12   13 1
    21   12   14 1
    22   12   28 1
    23   14   23 1
    24   14   15 1
    25   14   36 1
    26   15   20 ar
    27   15   16 ar
    28   16   17 ar
    29   16   37 1
    30   17   18 ar
    31   17   38 1
    32   18   19 ar
    33   18   39 1
    34   19   20 ar
    35   19   40 1
    36   20   21 1
    37   21   22 1
    38   21   41 1
    39   22   27 ar
    40   22   23 ar
    41   23   24 ar
    42   24   25 ar
    43   24   42 1
    44   25   26 ar
    45   25   43 1
    46   26   27 ar
    47   26   44 1
    48   27   45 1
    49   28   29 2
    50   28   30 am
    51   30   46 1
