@<TRIPOS>MOLECULE
ZINC00144230
   46    47     0     0     0
SMALL
USER_CHARGES
5-chloro-2-methylamino-N-(3,3,5-trimethylcyclohexyl)-benzamide
@<TRIPOS>ATOM
      1 C1          3.8063    2.0802   -3.1100 C.3       1 <0>        -0.1487
      2 C2          3.1594    2.2303   -1.7316 C.3       1 <0>        -0.0956
      3 H1          2.2268    2.7866   -1.8265 H         1 <0>         0.0693
      4 C3          2.8700    0.8449   -1.1504 C.3       1 <0>        -0.1240
      5 C4          2.2232    0.9951    0.2280 C.3       1 <0>         0.1501
      6 H2          2.0170    0.0081    0.6420 H         1 <0>         0.0849
      7 C5          3.1747    1.7499    1.1584 C.3       1 <0>        -0.1210
      8 C6          3.4641    3.1353    0.5772 C.3       1 <0>        -0.0616
      9 C7          4.1109    2.9852   -0.8012 C.3       1 <0>        -0.1043
     10 C8          2.1550    3.9160    0.4439 C.3       1 <0>        -0.1425
     11 C9          4.4156    3.8901    1.5077 C.3       1 <0>        -0.1415
     12 N1          0.9697    1.7426    0.1004 N.am      1 <0>        -0.7144
     13 C10         0.0809    1.7458    1.1135 C.2       1 <0>         0.5764
     14 O1          0.3193    1.1282    2.1334 O.2       1 <0>        -0.5489
     15 C11        -1.1833    2.4932    0.9827 C.ar      1 <0>        -0.2207
     16 C12        -1.4105    3.2998   -0.1356 C.ar      1 <0>        -0.0244
     17 C13        -2.5948    3.9956   -0.2520 C.ar      1 <0>        -0.1070
     18 C14        -3.5636    3.8995    0.7359 C.ar      1 <0>        -0.0294
     19 C15        -3.3533    3.1071    1.8455 C.ar      1 <0>        -0.1988
     20 C16        -2.1680    2.3942    1.9775 C.ar      1 <0>         0.2817
     21 N2         -1.9565    1.5916    3.0916 N.pl3     1 <0>        -0.7235
     22 C17        -2.9237    1.5962    4.1920 C.3       1 <0>         0.0800
     23 Cl1        -2.8749    4.9976   -1.6417 Cl        1 <0>        -0.0729
     24 H3          4.7389    1.5240   -3.0150 H         1 <0>         0.0562
     25 H4          3.1284    1.5425   -3.7728 H         1 <0>         0.0554
     26 H5          4.0124    3.0672   -3.5240 H         1 <0>         0.0564
     27 H6          3.8026    0.2887   -1.0555 H         1 <0>         0.0821
     28 H7          2.1921    0.3072   -1.8133 H         1 <0>         0.0703
     29 H8          2.7139    1.8568    2.1404 H         1 <0>         0.0736
     30 H9          4.1073    1.1937    1.2534 H         1 <0>         0.0716
     31 H10         4.3171    3.9722   -1.2152 H         1 <0>         0.0639
     32 H11         5.0435    2.4290   -0.7062 H         1 <0>         0.0646
     33 H12         1.5518    3.7696    1.3399 H         1 <0>         0.0526
     34 H13         2.3752    4.9767    0.3236 H         1 <0>         0.0480
     35 H14         1.6055    3.5580   -0.4266 H         1 <0>         0.0596
     36 H15         5.3482    3.3339    1.6026 H         1 <0>         0.0543
     37 H16         4.6218    4.8771    1.0936 H         1 <0>         0.0548
     38 H17         3.9548    3.9971    2.4896 H         1 <0>         0.0539
     39 H18         0.7795    2.2353   -0.7133 H         1 <0>         0.4010
     40 H19        -0.6595    3.3777   -0.9077 H         1 <0>         0.1300
     41 H20        -4.4882    4.4486    0.6361 H         1 <0>         0.1371
     42 H21        -4.1126    3.0375    2.6103 H         1 <0>         0.1378
     43 H22        -1.1685    1.0282    3.1410 H         1 <0>         0.4215
     44 H23        -3.0013    2.6026    4.6033 H         1 <0>         0.0573
     45 H24        -3.8983    1.2795    3.8204 H         1 <0>         0.0566
     46 H25        -2.5913    0.9099    4.9708 H         1 <0>         0.0782
@<TRIPOS>BOND
     1    1    2 1
     2    1   24 1
     3    1   25 1
     4    1   26 1
     5    2    3 1
     6    2    9 1
     7    2    4 1
     8    4    5 1
     9    4   27 1
    10    4   28 1
    11    5    6 1
    12    5    7 1
    13    5   12 1
    14    7    8 1
    15    7   29 1
    16    7   30 1
    17    8    9 1
    18    8   10 1
    19    8   11 1
    20    9   31 1
    21    9   32 1
    22   10   33 1
    23   10   34 1
    24   10   35 1
    25   11   36 1
    26   11   37 1
    27   11   38 1
    28   12   13 am
    29   12   39 1
    30   13   14 2
    31   13   15 1
    32   15   20 ar
    33   15   16 ar
    34   16   17 ar
    35   16   40 1
    36   17   18 ar
    37   17   23 1
    38   18   19 ar
    39   18   41 1
    40   19   20 ar
    41   19   42 1
    42   20   21 1
    43   21   22 1
    44   21   43 1
    45   22   44 1
    46   22   45 1
    47   22   46 1
