@<TRIPOS>MOLECULE
ZINC20387036
   58    60     0     0     0
SMALL
USER_CHARGES
(3S)-N-cyclooctyl-2-isopropyl-3-methyl-1-oxo-4H-isoquinoline-3-carboxamide
@<TRIPOS>ATOM
      1 C1          6.7180   -1.2427    2.5082 C.3       1 <0>        -0.1712
      2 C2          6.5412   -2.7611    2.4443 C.3       1 <0>         0.1286
      3 C3          7.3504   -3.4164    3.5653 C.3       1 <0>        -0.1694
      4 N1          5.1239   -3.0948    2.6059 N.am      1 <0>        -0.5978
      5 C4          4.4974   -2.7854    3.7571 C.2       1 <0>         0.5573
      6 O1          5.0569   -2.1090    4.5979 O.2       1 <0>        -0.5140
      7 C5          3.1226   -3.2771    3.9882 C.ar      1 <0>        -0.1536
      8 C6          2.3397   -2.7579    5.0170 C.ar      1 <0>        -0.0538
      9 C7          1.0469   -3.2119    5.1859 C.ar      1 <0>        -0.1292
     10 C8          0.5328   -4.1780    4.3389 C.ar      1 <0>        -0.0826
     11 C9          1.3096   -4.7020    3.3202 C.ar      1 <0>        -0.1210
     12 C10         2.6035   -4.2607    3.1445 C.ar      1 <0>        -0.0462
     13 C11         3.4681   -4.8309    2.0511 C.3       1 <0>        -0.0910
     14 C12         4.4127   -3.7581    1.5153 C.3       1 <0>         0.1587
     15 C13         5.4299   -4.4082    0.5754 C.3       1 <0>        -0.1493
     16 C14         3.6151   -2.7342    0.7494 C.2       1 <0>         0.5121
     17 O2          3.5025   -2.8298   -0.4543 O.2       1 <0>        -0.5333
     18 N2          3.0271   -1.7121    1.4022 N.am      1 <0>        -0.7292
     19 C15         2.2518   -0.7167    0.6577 C.3       1 <0>         0.1479
     20 C16         1.2197   -0.0747    1.5870 C.3       1 <0>        -0.1336
     21 C17         0.1649    0.6539    0.7521 C.3       1 <0>        -0.1242
     22 C18         0.2778    2.1611    0.9889 C.3       1 <0>        -0.1187
     23 C19         1.7516    2.5718    0.9657 C.3       1 <0>        -0.1428
     24 C20         2.2507    2.5988   -0.4805 C.3       1 <0>        -0.1189
     25 C21         2.4757    1.1665   -0.9688 C.3       1 <0>        -0.1239
     26 C22         3.1922    0.3630    0.1181 C.3       1 <0>        -0.1330
     27 H1          6.1362   -0.7716    1.7022 H         1 <0>         0.0525
     28 H2          7.7822   -0.9921    2.3870 H         1 <0>         0.0667
     29 H3          6.3627   -0.8728    3.4813 H         1 <0>         0.0818
     30 H4          6.8554   -3.1468    1.4632 H         1 <0>         0.1015
     31 H5          7.2233   -4.5081    3.5193 H         1 <0>         0.0550
     32 H6          6.9951   -3.0465    4.5384 H         1 <0>         0.0782
     33 H7          8.4146   -3.1657    3.4441 H         1 <0>         0.0690
     34 H8          2.7417   -2.0047    5.6784 H         1 <0>         0.1386
     35 H9          0.4353   -2.8124    5.9814 H         1 <0>         0.1325
     36 H10        -0.4811   -4.5250    4.4734 H         1 <0>         0.1303
     37 H11         0.9022   -5.4565    2.6636 H         1 <0>         0.1311
     38 H12         4.0611   -5.6667    2.4508 H         1 <0>         0.1049
     39 H13         2.8308   -5.1928    1.2308 H         1 <0>         0.1046
     40 H14         4.9001   -4.9094   -0.2481 H         1 <0>         0.0897
     41 H15         6.0241   -5.1473    1.1328 H         1 <0>         0.0769
     42 H16         6.0968   -3.6353    0.1658 H         1 <0>         0.0763
     43 H17         3.1294   -1.6253    2.4940 H         1 <0>         0.4114
     44 H18         1.7539   -1.2457   -0.1683 H         1 <0>         0.0885
     45 H19         0.7342   -0.8555    2.1908 H         1 <0>         0.0655
     46 H20         1.7216    0.6438    2.2517 H         1 <0>         0.0791
     47 H21         0.3274    0.4373   -0.3141 H         1 <0>         0.0759
     48 H22        -0.8376    0.3107    1.0473 H         1 <0>         0.0629
     49 H23        -0.2651    2.6983    0.1973 H         1 <0>         0.0636
     50 H24        -0.1576    2.4122    1.9674 H         1 <0>         0.0600
     51 H25         1.8605    3.5722    1.4100 H         1 <0>         0.0587
     52 H26         2.3433    1.8473    1.5444 H         1 <0>         0.0842
     53 H27         1.5009    3.0901   -1.1180 H         1 <0>         0.0627
     54 H28         3.1974    3.1566   -0.5313 H         1 <0>         0.0591
     55 H29         1.5055    0.6982   -1.1911 H         1 <0>         0.0737
     56 H30         3.0925    1.1822   -1.8795 H         1 <0>         0.0608
     57 H31         3.4867    1.0355    0.9373 H         1 <0>         0.0743
     58 H32         4.0890   -0.1111   -0.3074 H         1 <0>         0.0619
@<TRIPOS>BOND
     1    1    2 1
     2    1   27 1
     3    1   28 1
     4    1   29 1
     5    2    3 1
     6    2    4 1
     7    2   30 1
     8    3   31 1
     9    3   32 1
    10    3   33 1
    11    4   14 1
    12    4    5 am
    13    5    6 2
    14    5    7 1
    15    7   12 ar
    16    7    8 ar
    17    8    9 ar
    18    8   34 1
    19    9   10 ar
    20    9   35 1
    21   10   11 ar
    22   10   36 1
    23   11   12 ar
    24   11   37 1
    25   12   13 1
    26   13   14 1
    27   13   38 1
    28   13   39 1
    29   14   15 1
    30   14   16 1
    31   15   40 1
    32   15   41 1
    33   15   42 1
    34   16   17 2
    35   16   18 am
    36   18   19 1
    37   18   43 1
    38   19   26 1
    39   19   20 1
    40   19   44 1
    41   20   21 1
    42   20   45 1
    43   20   46 1
    44   21   22 1
    45   21   47 1
    46   21   48 1
    47   22   23 1
    48   22   49 1
    49   22   50 1
    50   23   24 1
    51   23   51 1
    52   23   52 1
    53   24   25 1
    54   24   53 1
    55   24   54 1
    56   25   26 1
    57   25   55 1
    58   25   56 1
    59   26   57 1
    60   26   58 1
