@<TRIPOS>MOLECULE
ZINC05046642
   35    36     0     0     0
SMALL
USER_CHARGES
1-(2-bromoprop-2-enyl)-3-tetralin-1-yl-urea
@<TRIPOS>ATOM
      1 C1         -1.2803   10.7406    4.1304 C.2       1 <0>        -0.1062
      2 C2         -1.9111    9.5917    4.0897 C.2       1 <0>        -0.1565
      3 C3         -2.2764    8.9793    2.7622 C.3       1 <0>         0.1834
      4 N1         -1.5399    7.7255    2.5836 N.am      1 <0>        -0.7386
      5 C4         -1.7087    6.9988    1.4611 C.2       1 <0>         0.7060
      6 O1         -2.4723    7.3838    0.5967 O.2       1 <0>        -0.5666
      7 N2         -1.0312    5.8454    1.2968 N.am      1 <0>        -0.6805
      8 C5         -1.1153    5.1510    0.0847 C.ar      1 <0>         0.1660
      9 C6         -1.4301    5.8336   -1.0799 C.ar      1 <0>        -0.1342
     10 C7         -1.5130    5.1461   -2.2747 C.ar      1 <0>        -0.0986
     11 C8         -1.2844    3.7853   -2.3015 C.ar      1 <0>        -0.1414
     12 C9         -0.9702    3.0958   -1.1370 C.ar      1 <0>        -0.0554
     13 C10        -0.8822    3.7761    0.0558 C.ar      1 <0>        -0.1088
     14 C11        -0.5376    3.0955    1.3546 C.3       1 <0>        -0.0807
     15 C12        -0.7384    1.5859    1.2402 C.3       1 <0>        -0.1178
     16 C13         0.0002    1.0935   -0.0100 C.3       1 <0>        -0.1204
     17 C14        -0.7389    1.6110   -1.2423 C.3       1 <0>        -0.0806
     18 Br1        -2.3624    8.7035    5.6970 Br        1 <0>        -0.0551
     19 H1         -1.0225   11.2479    3.2124 H         1 <0>         0.1269
     20 H2         -1.0185   11.1795    5.0818 H         1 <0>         0.1200
     21 H3         -2.0176    9.6701    1.9598 H         1 <0>         0.0888
     22 H4         -3.3474    8.7782    2.7372 H         1 <0>         0.0859
     23 H5         -0.9308    7.4184    3.2732 H         1 <0>         0.4001
     24 H6         -0.4853    5.4965    2.0187 H         1 <0>         0.4065
     25 H7         -1.6094    6.8983   -1.0531 H         1 <0>         0.1467
     26 H8         -1.7566    5.6720   -3.1860 H         1 <0>         0.1248
     27 H9         -1.3504    3.2507   -3.2376 H         1 <0>         0.1209
     28 H10         0.5036    3.3012    1.6030 H         1 <0>         0.0733
     29 H11        -1.1793    3.4842    2.1453 H         1 <0>         0.0696
     30 H12        -1.8016    1.3632    1.1501 H         1 <0>         0.0666
     31 H13        -0.3332    1.0931    2.1240 H         1 <0>         0.0685
     32 H14         0.0156    0.0037   -0.0219 H         1 <0>         0.0687
     33 H15         1.0213    1.4750   -0.0072 H         1 <0>         0.0657
     34 H16        -0.1446    1.4021   -2.1318 H         1 <0>         0.0760
     35 H17        -1.6995    1.1026   -1.3251 H         1 <0>         0.0770
@<TRIPOS>BOND
     1    1    2 2
     2    1   19 1
     3    1   20 1
     4    2    3 1
     5    2   18 1
     6    3    4 1
     7    3   21 1
     8    3   22 1
     9    4    5 am
    10    4   23 1
    11    5    6 2
    12    5    7 am
    13    7    8 1
    14    7   24 1
    15    8   13 ar
    16    8    9 ar
    17    9   10 ar
    18    9   25 1
    19   10   11 ar
    20   10   26 1
    21   11   12 ar
    22   11   27 1
    23   12   17 1
    24   12   13 ar
    25   13   14 1
    26   14   15 1
    27   14   28 1
    28   14   29 1
    29   15   16 1
    30   15   30 1
    31   15   31 1
    32   16   17 1
    33   16   32 1
    34   16   33 1
    35   17   34 1
    36   17   35 1
