@<TRIPOS>MOLECULE
ZINC20420392
   43    44     0     0     0
SMALL
USER_CHARGES
(2R)-2-[(4-bromo-2,6-dimethyl-phenyl)amino]-N-cyclopentyl-propanamide
@<TRIPOS>ATOM
      1 C1         -0.0426    5.1838   -0.6241 C.3       1 <0>        -0.1146
      2 C2         -0.1024    3.7440   -0.1835 C.ar      1 <0>        -0.0874
      3 C3          1.0621    3.0622    0.1109 C.ar      1 <0>        -0.0913
      4 C4          1.0075    1.7419    0.5210 C.ar      1 <0>        -0.0900
      5 C5         -0.2126    1.0990    0.6320 C.ar      1 <0>        -0.0912
      6 C6         -1.3799    1.7739    0.3336 C.ar      1 <0>        -0.0895
      7 C7         -1.3283    3.0994   -0.0784 C.ar      1 <0>         0.1919
      8 N1         -2.5077    3.7848   -0.3810 N.pl3     1 <0>        -0.7809
      9 C8         -2.9853    3.4418   -1.7272 C.3       1 <0>         0.1385
     10 H1         -2.7681    2.3770   -1.8978 H         1 <0>         0.0913
     11 C9         -2.2734    4.3183   -2.7596 C.3       1 <0>        -0.1685
     12 C10        -4.4716    3.6771   -1.8079 C.2       1 <0>         0.5124
     13 O1         -5.0738    4.0899   -0.8394 O.2       1 <0>        -0.5387
     14 N2         -5.1318    3.4289   -2.9564 N.am      1 <0>        -0.7379
     15 C11        -6.5767    3.6576   -3.0349 C.3       1 <0>         0.1385
     16 C12        -7.3371    2.3950   -2.5793 C.3       1 <0>        -0.1362
     17 C13        -8.5685    2.3342   -3.5169 C.3       1 <0>        -0.1256
     18 C14        -7.9882    2.8038   -4.8741 C.3       1 <0>        -0.1196
     19 C15        -6.9907    3.9175   -4.4940 C.3       1 <0>        -0.1256
     20 C16        -2.7085    1.0731    0.4552 C.3       1 <0>        -0.1176
     21 Br1         2.6037    0.8142    0.9300 Br        1 <0>        -0.0534
     22 H2          1.0054    5.5171   -0.6466 H         1 <0>         0.0617
     23 H3         -0.6106    5.8072    0.0821 H         1 <0>         0.0700
     24 H4         -0.4790    5.2780   -1.6294 H         1 <0>         0.0798
     25 H5          2.0159    3.5615    0.0251 H         1 <0>         0.1309
     26 H6         -0.2521    0.0685    0.9527 H         1 <0>         0.1307
     27 H7         -3.0713    4.4991    0.2371 H         1 <0>         0.4415
     28 H8         -2.6310    4.0615   -3.7676 H         1 <0>         0.0617
     29 H9         -1.1885    4.1466   -2.7006 H         1 <0>         0.0733
     30 H10        -2.4889    5.3770   -2.5528 H         1 <0>         0.0649
     31 H11        -4.5857    3.0546   -3.8348 H         1 <0>         0.4167
     32 H12        -6.7670    4.5238   -2.3842 H         1 <0>         0.0895
     33 H13        -6.6875    1.5146   -2.6934 H         1 <0>         0.0691
     34 H14        -7.6269    2.5025   -1.5236 H         1 <0>         0.0685
     35 H15        -8.9518    1.3037   -3.5524 H         1 <0>         0.0685
     36 H16        -9.3531    3.0043   -3.1356 H         1 <0>         0.0692
     37 H17        -7.4923    1.9582   -5.3731 H         1 <0>         0.0683
     38 H18        -8.8028    3.1790   -5.5111 H         1 <0>         0.0694
     39 H19        -7.4616    4.9087   -4.5705 H         1 <0>         0.0751
     40 H20        -6.1005    3.8837   -5.1393 H         1 <0>         0.0725
     41 H21        -3.5157    1.7669    0.1776 H         1 <0>         0.0775
     42 H22        -2.8531    0.7389    1.4932 H         1 <0>         0.0701
     43 H23        -2.7264    0.2021   -0.2164 H         1 <0>         0.0663
@<TRIPOS>BOND
     1    1    2 1
     2    1   22 1
     3    1   23 1
     4    1   24 1
     5    2    7 ar
     6    2    3 ar
     7    3    4 ar
     8    3   25 1
     9    4    5 ar
    10    4   21 1
    11    5    6 ar
    12    5   26 1
    13    6    7 ar
    14    6   20 1
    15    7    8 1
    16    8    9 1
    17    8   27 1
    18    9   10 1
    19    9   11 1
    20    9   12 1
    21   11   28 1
    22   11   29 1
    23   11   30 1
    24   12   13 2
    25   12   14 am
    26   14   15 1
    27   14   31 1
    28   15   19 1
    29   15   16 1
    30   15   32 1
    31   16   17 1
    32   16   33 1
    33   16   34 1
    34   17   18 1
    35   17   35 1
    36   17   36 1
    37   18   19 1
    38   18   37 1
    39   18   38 1
    40   19   39 1
    41   19   40 1
    42   20   41 1
    43   20   42 1
    44   20   43 1
