@<TRIPOS>MOLECULE
ZINC00082299
   28    29     0     0     0
SMALL
USER_CHARGES
1-(3-chlorophenyl)-3-[(3-chloro-2-thienyl)methyl]urea
@<TRIPOS>ATOM
      1 C1          0.0860    3.6112    0.7892 C.ar      1 <0>        -0.0854
      2 C2         -1.1052    2.9118    0.7807 C.ar      1 <0>        -0.1161
      3 C3         -1.2238    1.7536    0.0240 C.ar      1 <0>         0.1796
      4 C4         -0.1472    1.3076   -0.7312 C.ar      1 <0>        -0.1415
      5 C5          1.0420    2.0117   -0.7192 C.ar      1 <0>        -0.0146
      6 C6          1.1583    3.1627    0.0409 C.ar      1 <0>        -0.1268
      7 Cl1         2.3911    1.4519   -1.6575 Cl        1 <0>        -0.0652
      8 N1         -2.4275    1.0398    0.0187 N.am      1 <0>        -0.6841
      9 C7         -3.6000    1.6951    0.1295 C.2       1 <0>         0.7087
     10 O1         -3.6187    2.9108    0.1369 O.2       1 <0>        -0.5658
     11 N2         -4.7518    1.0028    0.2323 N.am      1 <0>        -0.7358
     12 C8         -6.0263    1.7151    0.3528 C.3       1 <0>         0.2260
     13 C9         -7.1518    0.7177    0.4517 C.2       1 <0>        -0.1777
     14 C10        -7.6893    0.1437    1.5563 C.2       1 <0>        -0.0405
     15 C11        -8.7321   -0.7519    1.4060 C.2       1 <0>        -0.1633
     16 C12        -9.1781   -1.0379    0.1582 C.2       1 <0>        -0.1466
     17 S1         -8.1179   -0.0203   -0.8556 S.3       1 <0>         0.0998
     18 Cl2        -7.0810    0.5311    3.1354 Cl        1 <0>        -0.0480
     19 H1          0.1798    4.5094    1.3816 H         1 <0>         0.1372
     20 H2         -1.9424    3.2631    1.3657 H         1 <0>         0.1428
     21 H3         -0.2377    0.4093   -1.3240 H         1 <0>         0.1360
     22 H4          2.0886    3.7112    0.0496 H         1 <0>         0.1353
     23 H5         -2.4180    0.0734   -0.0648 H         1 <0>         0.4098
     24 H6         -4.7369    0.0329    0.2265 H         1 <0>         0.4014
     25 H7         -6.0119    2.3366    1.2481 H         1 <0>         0.0974
     26 H8         -6.1750    2.3448   -0.5244 H         1 <0>         0.0907
     27 H9         -9.1815   -1.2199    2.2694 H         1 <0>         0.1486
     28 H10        -9.9699   -1.7073   -0.1442 H         1 <0>         0.1982
@<TRIPOS>BOND
     1    1    6 ar
     2    1    2 ar
     3    1   19 1
     4    2    3 ar
     5    2   20 1
     6    3    4 ar
     7    3    8 1
     8    4    5 ar
     9    4   21 1
    10    5    6 ar
    11    5    7 1
    12    6   22 1
    13    8    9 am
    14    8   23 1
    15    9   10 2
    16    9   11 am
    17   11   12 1
    18   11   24 1
    19   12   13 1
    20   12   25 1
    21   12   26 1
    22   13   17 1
    23   13   14 2
    24   14   15 1
    25   14   18 1
    26   15   16 2
    27   15   27 1
    28   16   17 1
    29   16   28 1
