@<TRIPOS>MOLECULE
ZINC01763093
   58    61     0     0     0
SMALL
USER_CHARGES

@<TRIPOS>ATOM
      1 C1          2.5267    1.3168   -1.1544 C.3       1 <0>        -0.1206
      2 C2          2.3760   -0.1808   -1.0796 C.ar      1 <0>        -0.0642
      3 C3          2.4887   -0.9426   -2.2291 C.ar      1 <0>        -0.1196
      4 C4          2.3518   -2.3139   -2.1676 C.ar      1 <0>        -0.0658
      5 C5          2.0994   -2.9327   -0.9421 C.ar      1 <0>        -0.0337
      6 C6          1.9872   -2.1583    0.2138 C.ar      1 <0>        -0.0991
      7 C7          2.1310   -0.7883    0.1391 C.ar      1 <0>        -0.1177
      8 C8          1.9510   -4.4015   -0.8689 C.2       1 <0>         0.2446
      9 N1          1.7634   -5.2185   -1.8794 N.2       1 <0>        -0.2630
     10 N2          1.6774   -6.4288   -1.4565 N.2       1 <0>        -0.2856
     11 C9          1.8047   -6.4613   -0.1485 C.2       1 <0>         0.1513
     12 N3          1.9894   -5.1728    0.2722 N.pl3     1 <0>        -0.4144
     13 C10         2.1761   -4.7295    1.5892 C.ar      1 <0>         0.1047
     14 C11         3.3772   -4.1408    1.9610 C.ar      1 <0>        -0.0825
     15 C12         3.5588   -3.7050    3.2589 C.ar      1 <0>        -0.0956
     16 C13         2.5447   -3.8547    4.1885 C.ar      1 <0>        -0.0178
     17 C14         1.3468   -4.4416    3.8205 C.ar      1 <0>        -0.0932
     18 C15         1.1582   -4.8734    2.5222 C.ar      1 <0>        -0.0865
     19 Cl1         2.7759   -3.3059    5.8192 Cl        1 <0>        -0.0489
     20 S1          1.7539   -7.8971    0.8715 S.3       1 <0>         0.0979
     21 C16         1.4928   -9.2580   -0.2991 C.3       1 <0>        -0.1481
     22 C17         1.4293  -10.5624    0.4531 C.2       1 <0>         0.5553
     23 O1          1.5484  -10.5728    1.6603 O.2       1 <0>        -0.4816
     24 N4          1.2402  -11.7173   -0.2155 N.am      1 <0>        -0.5766
     25 N5          1.1811  -12.9298    0.4838 N.2       1 <0>        -0.2139
     26 C18         0.9983  -14.0458   -0.1622 C.2       1 <0>         0.0961
     27 C19         0.9385  -15.2731    0.5456 C.2       1 <0>        -0.0779
     28 C20         0.7493  -16.4288   -0.1234 C.2       1 <0>        -0.0901
     29 C21         0.6872  -17.7028    0.6113 C.ar      1 <0>         0.0027
     30 C22         1.1424  -17.7757    1.9317 C.ar      1 <0>        -0.1062
     31 C23         1.0810  -18.9726    2.6131 C.ar      1 <0>        -0.0696
     32 C24         0.5705  -20.1004    1.9938 C.ar      1 <0>        -0.1102
     33 C25         0.1186  -20.0364    0.6875 C.ar      1 <0>        -0.0579
     34 C26         0.1676  -18.8450   -0.0054 C.ar      1 <0>        -0.0340
     35 N6         -0.3230  -18.7770   -1.4007 N.pl3     1 <0>         0.0291
     36 O2         -0.9076  -17.7924   -1.7886 O.2       1 <0>        -0.1485
     37 O3         -0.1391  -19.7061   -2.1521 O.3       1 <0>        -0.1498
     38 H1          3.5744    1.5839   -1.0161 H         1 <0>         0.0755
     39 H2          2.1879    1.6679   -2.1291 H         1 <0>         0.0708
     40 H3          1.9269    1.7819   -0.3721 H         1 <0>         0.0698
     41 H4          2.6841   -0.4625   -3.1766 H         1 <0>         0.1326
     42 H5          2.4394   -2.9074   -3.0657 H         1 <0>         0.1377
     43 H6          1.7919   -2.6309    1.1651 H         1 <0>         0.1261
     44 H7          2.0486   -0.1883    1.0333 H         1 <0>         0.1294
     45 H8          4.1690   -4.0240    1.2359 H         1 <0>         0.1422
     46 H9          4.4931   -3.2472    3.5486 H         1 <0>         0.1496
     47 H10         0.5569   -4.5577    4.5478 H         1 <0>         0.1504
     48 H11         0.2213   -5.3270    2.2342 H         1 <0>         0.1447
     49 H12         0.5567   -9.1017   -0.8351 H         1 <0>         0.1338
     50 H13         2.3181   -9.2887   -1.0105 H         1 <0>         0.1334
     51 H14         1.1449  -11.7089   -1.1808 H         1 <0>         0.3939
     52 H15         0.8923  -14.0364   -1.2369 H         1 <0>         0.1242
     53 H16         1.0446  -15.2824    1.6203 H         1 <0>         0.1369
     54 H17         0.6432  -16.4195   -1.1981 H         1 <0>         0.1411
     55 H18         1.5413  -16.8967    2.4161 H         1 <0>         0.1518
     56 H19         1.4325  -19.0305    3.6327 H         1 <0>         0.1469
     57 H20         0.5250  -21.0351    2.5329 H         1 <0>         0.1493
     58 H21        -0.2778  -20.9208    0.2108 H         1 <0>         0.1507
@<TRIPOS>BOND
     1    1    2 1
     2    1   38 1
     3    1   39 1
     4    1   40 1
     5    2    7 ar
     6    2    3 ar
     7    3    4 ar
     8    3   41 1
     9    4    5 ar
    10    4   42 1
    11    5    6 ar
    12    5    8 1
    13    6    7 ar
    14    6   43 1
    15    7   44 1
    16    8   12 1
    17    8    9 2
    18    9   10 1
    19   10   11 2
    20   11   12 1
    21   11   20 1
    22   12   13 1
    23   13   18 ar
    24   13   14 ar
    25   14   15 ar
    26   14   45 1
    27   15   16 ar
    28   15   46 1
    29   16   17 ar
    30   16   19 1
    31   17   18 ar
    32   17   47 1
    33   18   48 1
    34   20   21 1
    35   21   22 1
    36   21   49 1
    37   21   50 1
    38   22   23 2
    39   22   24 am
    40   24   25 1
    41   24   51 1
    42   25   26 2
    43   26   27 1
    44   26   52 1
    45   27   28 2
    46   27   53 1
    47   28   29 1
    48   28   54 1
    49   29   34 ar
    50   29   30 ar
    51   30   31 ar
    52   30   55 1
    53   31   32 ar
    54   31   56 1
    55   32   33 ar
    56   32   57 1
    57   33   34 ar
    58   33   58 1
    59   34   35 1
    60   35   36 2
    61   35   37 1
