@<TRIPOS>MOLECULE
ZINC00940802
   51    55     0     0     0
SMALL
USER_CHARGES
2-(3-bromophenyl)-4-methyl-N-phenyl-8-(3-pyridyl)-1,5,7,9-tetrazabicyclo[4.3.0]nona-3,6,8-triene-3-carboxamide
@<TRIPOS>ATOM
      1 C1         -0.1891    3.9421    0.1889 C.3       1 <0>        -0.1148
      2 C2          1.1784    3.3172    0.0859 C.2       1 <0>         0.2709
      3 C3          1.2750    1.9842   -0.0217 C.2       1 <0>        -0.3201
      4 C4          2.5914    1.2598   -0.1130 C.3       1 <0>         0.2717
      5 H1          2.5536    0.5387   -0.9295 H         1 <0>         0.1086
      6 N1          3.6596    2.2245   -0.3678 N.pl3     1 <0>        -0.3823
      7 C5          3.5003    3.5678   -0.2533 C.2       1 <0>         0.4994
      8 N2          4.6396    4.1373   -0.5310 N.2       1 <0>        -0.5325
      9 C6          5.5503    3.1960   -0.8334 C.2       1 <0>         0.2880
     10 N3          4.9842    2.0091   -0.7451 N.2       1 <0>        -0.2743
     11 C7          6.9637    3.4518   -1.2062 C.ar      1 <0>        -0.0694
     12 C8          7.4568    4.7582   -1.2673 C.ar      1 <0>        -0.0312
     13 C9          8.7825    4.9437   -1.6195 C.ar      1 <0>        -0.1754
     14 C10         9.5694    3.8407   -1.8972 C.ar      1 <0>         0.1145
     15 N4          9.0758    2.6194   -1.8311 N.ar      1 <0>        -0.4831
     16 C11         7.8220    2.3935   -1.4953 C.ar      1 <0>         0.1400
     17 N5          2.2836    4.1323    0.1050 N.pl3     1 <0>        -0.6061
     18 C12         2.8586    0.5380    1.1827 C.ar      1 <0>        -0.1040
     19 C13         2.9560    1.2506    2.3635 C.ar      1 <0>        -0.0739
     20 C14         3.1954    0.5886    3.5530 C.ar      1 <0>        -0.1069
     21 C15         3.3489   -0.7852    3.5608 C.ar      1 <0>        -0.0763
     22 C16         3.2572   -1.4979    2.3791 C.ar      1 <0>        -0.0836
     23 C17         3.0119   -0.8354    1.1896 C.ar      1 <0>        -0.0760
     24 Br1         3.4677   -3.3771    2.3891 Br        1 <0>        -0.0366
     25 C18         0.0833    1.2218   -0.0447 C.2       1 <0>         0.5842
     26 O1         -0.9977    1.7822   -0.0668 O.2       1 <0>        -0.5217
     27 N6          0.1446   -0.1245   -0.0478 N.am      1 <0>        -0.6701
     28 C19        -1.0294   -0.8782    0.0492 C.ar      1 <0>         0.1511
     29 C20        -2.1506   -0.3431    0.6701 C.ar      1 <0>        -0.1278
     30 C21        -3.3101   -1.0880    0.7595 C.ar      1 <0>        -0.0994
     31 C22        -3.3520   -2.3696    0.2418 C.ar      1 <0>        -0.1386
     32 C23        -2.2358   -2.9073   -0.3724 C.ar      1 <0>        -0.0969
     33 C24        -1.0750   -2.1655   -0.4702 C.ar      1 <0>        -0.1518
     34 H2         -0.7311    3.4949    1.0222 H         1 <0>         0.1111
     35 H3         -0.0869    5.0145    0.3556 H         1 <0>         0.0666
     36 H4         -0.7383    3.7690   -0.7366 H         1 <0>         0.1130
     37 H5          6.8195    5.6015   -1.0456 H         1 <0>         0.1468
     38 H6          9.1978    5.9390   -1.6772 H         1 <0>         0.1436
     39 H7         10.6043    3.9816   -2.1720 H         1 <0>         0.1620
     40 H8          7.4553    1.3788   -1.4480 H         1 <0>         0.1638
     41 H9          2.2166    5.0662    0.3587 H         1 <0>         0.4438
     42 H10         2.8409    2.3245    2.3571 H         1 <0>         0.1195
     43 H11         3.2670    1.1451    4.4758 H         1 <0>         0.1368
     44 H12         3.5408   -1.3020    4.4896 H         1 <0>         0.1387
     45 H13         2.9399   -1.3915    0.2666 H         1 <0>         0.1353
     46 H14         1.0030   -0.5708   -0.1172 H         1 <0>         0.4042
     47 H15        -2.1172    0.6561    1.0787 H         1 <0>         0.1433
     48 H16        -4.1837   -0.6709    1.2383 H         1 <0>         0.1249
     49 H17        -4.2586   -2.9517    0.3170 H         1 <0>         0.1224
     50 H18        -2.2720   -3.9082   -0.7764 H         1 <0>         0.1257
     51 H19        -0.2037   -2.5859   -0.9504 H         1 <0>         0.1228
@<TRIPOS>BOND
     1    1    2 1
     2    1   34 1
     3    1   35 1
     4    1   36 1
     5    2   17 1
     6    2    3 2
     7    3    4 1
     8    3   25 1
     9    4    5 1
    10    4    6 1
    11    4   18 1
    12    6   10 1
    13    6    7 1
    14    7    8 2
    15    7   17 1
    16    8    9 1
    17    9   10 2
    18    9   11 1
    19   11   16 ar
    20   11   12 ar
    21   12   13 ar
    22   12   37 1
    23   13   14 ar
    24   13   38 1
    25   14   15 ar
    26   14   39 1
    27   15   16 ar
    28   16   40 1
    29   17   41 1
    30   18   23 ar
    31   18   19 ar
    32   19   20 ar
    33   19   42 1
    34   20   21 ar
    35   20   43 1
    36   21   22 ar
    37   21   44 1
    38   22   23 ar
    39   22   24 1
    40   23   45 1
    41   25   26 2
    42   25   27 am
    43   27   28 1
    44   27   46 1
    45   28   33 ar
    46   28   29 ar
    47   29   30 ar
    48   29   47 1
    49   30   31 ar
    50   30   48 1
    51   31   32 ar
    52   31   49 1
    53   32   33 ar
    54   32   50 1
    55   33   51 1
