@<TRIPOS>MOLECULE
ZINC00054183
   42    45     0     0     0
SMALL
USER_CHARGES
2-(4-methoxyphenyl)-3-(2-pyridyl)-1,2-dihydroquinazolin-4-one
@<TRIPOS>ATOM
      1 C1          2.0349    3.6012    6.5273 C.3       1 <0>         0.0256
      2 O1          1.3670    4.5441    5.6865 O.3       1 <0>        -0.3157
      3 C2          1.3144    4.2581    4.3589 C.ar      1 <0>         0.1399
      4 C3          0.6813    5.1298    3.4849 C.ar      1 <0>        -0.1546
      5 C4          0.6296    4.8370    2.1358 C.ar      1 <0>        -0.0468
      6 C5          1.2081    3.6763    1.6565 C.ar      1 <0>        -0.1725
      7 C6          1.8347    2.8031    2.5263 C.ar      1 <0>        -0.0520
      8 C7          1.8941    3.0941    3.8755 C.ar      1 <0>        -0.2078
      9 C8          1.1502    3.3593    0.1843 C.3       1 <0>         0.4335
     10 H1          2.0262    3.7792   -0.3099 H         1 <0>         0.1183
     11 N1         -0.0627    3.9532   -0.3897 N.pl3     1 <0>        -0.7452
     12 C9         -1.2847    3.3290   -0.1651 C.ar      1 <0>         0.2359
     13 C10        -2.4718    4.0411   -0.1331 C.ar      1 <0>        -0.1808
     14 C11        -3.6639    3.3748    0.0601 C.ar      1 <0>        -0.0510
     15 C12        -3.6815    2.0002    0.2378 C.ar      1 <0>        -0.1693
     16 C13        -2.5072    1.2768    0.2211 C.ar      1 <0>        -0.0198
     17 C14        -1.2963    1.9367    0.0223 C.ar      1 <0>        -0.1960
     18 C15        -0.0141    1.2114    0.0124 C.2       1 <0>         0.5737
     19 O2          0.0029   -0.0045    0.0090 O.2       1 <0>        -0.4863
     20 N2          1.1401    1.9077    0.0014 N.am      1 <0>        -0.5638
     21 C16         2.3445    1.2333   -0.1869 C.ar      1 <0>         0.3583
     22 C17         3.3343    1.7999   -0.9826 C.ar      1 <0>        -0.1937
     23 C18         4.5256    1.1194   -1.1612 C.ar      1 <0>        -0.0518
     24 C19         4.6868   -0.1094   -0.5353 C.ar      1 <0>        -0.1897
     25 C20         3.6617   -0.6124    0.2409 C.ar      1 <0>         0.1283
     26 N3          2.5384    0.0616    0.3976 N.ar      1 <0>        -0.4752
     27 H2          1.5373    2.6341    6.4556 H         1 <0>         0.0570
     28 H3          3.0722    3.5007    6.2080 H         1 <0>         0.0567
     29 H4          2.0046    3.9498    7.5596 H         1 <0>         0.1028
     30 H5          0.2296    6.0367    3.8588 H         1 <0>         0.1341
     31 H6          0.1365    5.5151    1.4551 H         1 <0>         0.1322
     32 H7          2.2817    1.8947    2.1501 H         1 <0>         0.1259
     33 H8          2.3875    2.4139    4.5539 H         1 <0>         0.1297
     34 H9         -0.0129    4.7665   -0.9160 H         1 <0>         0.4173
     35 H10        -2.4660    5.1122   -0.2715 H         1 <0>         0.1311
     36 H11        -4.5903    3.9295    0.0816 H         1 <0>         0.1299
     37 H12        -4.6219    1.4918    0.3909 H         1 <0>         0.1295
     38 H13        -2.5263    0.2060    0.3608 H         1 <0>         0.1356
     39 H14         3.1751    2.7579   -1.4551 H         1 <0>         0.1354
     40 H15         5.3121    1.5345   -1.7739 H         1 <0>         0.1406
     41 H16         5.6048   -0.6659   -0.6541 H         1 <0>         0.1393
     42 H17         3.7828   -1.5677    0.7299 H         1 <0>         0.1612
@<TRIPOS>BOND
     1    1    2 1
     2    1   27 1
     3    1   28 1
     4    1   29 1
     5    2    3 1
     6    3    8 ar
     7    3    4 ar
     8    4    5 ar
     9    4   30 1
    10    5    6 ar
    11    5   31 1
    12    6    7 ar
    13    6    9 1
    14    7    8 ar
    15    7   32 1
    16    8   33 1
    17    9   10 1
    18    9   20 1
    19    9   11 1
    20   11   12 1
    21   11   34 1
    22   12   17 ar
    23   12   13 ar
    24   13   14 ar
    25   13   35 1
    26   14   15 ar
    27   14   36 1
    28   15   16 ar
    29   15   37 1
    30   16   17 ar
    31   16   38 1
    32   17   18 1
    33   18   19 2
    34   18   20 am
    35   20   21 1
    36   21   26 ar
    37   21   22 ar
    38   22   23 ar
    39   22   39 1
    40   23   24 ar
    41   23   40 1
    42   24   25 ar
    43   24   41 1
    44   25   26 ar
    45   25   42 1
