@<TRIPOS>MOLECULE
ZINC01327701
   63    66     0     0     0
SMALL
USER_CHARGES
3-(3-chlorophenyl)-1-[(6-ethoxy-2-oxo-1H-quinolin-3-yl)methyl]-1-[2-(o-tolyl)ethyl]urea
@<TRIPOS>ATOM
      1 C1         -8.3161   -2.3687   -7.6574 C.3       1 <0>        -0.1537
      2 C2         -7.4901   -1.1679   -7.1921 C.3       1 <0>         0.0534
      3 O1         -7.1573   -1.3250   -5.8113 O.3       1 <0>        -0.3143
      4 C3         -6.4197   -0.3372   -5.2379 C.ar      1 <0>         0.1001
      5 C4         -6.0250    0.7625   -5.9965 C.ar      1 <0>        -0.1475
      6 C5         -5.2777    1.7724   -5.4325 C.ar      1 <0>        -0.1245
      7 C6         -4.9091    1.6994   -4.0931 C.ar      1 <0>         0.1553
      8 C7         -5.3056    0.5901   -3.3230 C.ar      1 <0>        -0.0936
      9 C8         -6.0651   -0.4293   -3.9072 C.ar      1 <0>        -0.0930
     10 C9         -4.9116    0.5262   -1.9144 C.2       1 <0>        -0.0110
     11 C10        -4.1759    1.5426   -1.4004 C.2       1 <0>        -0.1922
     12 C11        -3.8086    2.6360   -2.2135 C.2       1 <0>         0.5276
     13 O2         -3.1515    3.5418   -1.7300 O.2       1 <0>        -0.4933
     14 N1         -4.1604    2.7011   -3.5095 N.am      1 <0>        -0.6331
     15 H1         -3.8873    3.4652   -4.0410 H         1 <0>         0.4143
     16 C12        -3.7541    1.5075    0.0459 C.3       1 <0>         0.1876
     17 N2         -2.4057    0.9437    0.1478 N.am      1 <0>        -0.6205
     18 C13        -2.2264   -0.5006    0.3149 C.3       1 <0>         0.1133
     19 C14        -2.2009   -0.8423    1.8060 C.3       1 <0>        -0.1014
     20 C15        -2.0465   -2.3316    1.9775 C.ar      1 <0>        -0.0857
     21 C16        -3.1652   -3.1292    2.1325 C.ar      1 <0>        -0.1101
     22 C17        -3.0238   -4.4956    2.2850 C.ar      1 <0>        -0.1220
     23 C18        -1.7633   -5.0636    2.2930 C.ar      1 <0>        -0.1165
     24 C19        -0.6448   -4.2655    2.1433 C.ar      1 <0>        -0.1173
     25 C20        -0.7865   -2.8993    1.9856 C.ar      1 <0>        -0.0819
     26 C21         0.4331   -2.0292    1.8229 C.3       1 <0>        -0.1201
     27 C22        -1.3303    1.7538    0.0879 C.2       1 <0>         0.6968
     28 O3         -1.4793    2.9597    0.0435 O.2       1 <0>        -0.5255
     29 N3         -0.0897    1.2273    0.0773 N.am      1 <0>        -0.6895
     30 C23         1.0280    2.0687    0.1121 C.ar      1 <0>         0.1770
     31 C24         2.1651    1.6866    0.8122 C.ar      1 <0>        -0.1452
     32 C25         3.2683    2.5168    0.8415 C.ar      1 <0>        -0.0881
     33 C26         3.2386    3.7325    0.1830 C.ar      1 <0>        -0.1289
     34 C27         2.1058    4.1187   -0.5115 C.ar      1 <0>        -0.0157
     35 C28         1.0002    3.2895   -0.5483 C.ar      1 <0>        -0.1108
     36 Cl1         2.0728    5.6456   -1.3368 Cl        1 <0>        -0.0656
     37 H2         -8.5700   -2.2489   -8.7107 H         1 <0>         0.0798
     38 H3         -7.7359   -3.2820   -7.5252 H         1 <0>         0.0672
     39 H4         -9.2308   -2.4309   -7.0680 H         1 <0>         0.0674
     40 H5         -8.0703   -0.2546   -7.3243 H         1 <0>         0.0629
     41 H6         -6.5754   -1.1057   -7.7815 H         1 <0>         0.0626
     42 H7         -6.3083    0.8239   -7.0369 H         1 <0>         0.1374
     43 H8         -4.9775    2.6206   -6.0299 H         1 <0>         0.1373
     44 H9         -6.3722   -1.2825   -3.3206 H         1 <0>         0.1434
     45 H10        -5.2005   -0.3123   -1.2981 H         1 <0>         0.1452
     46 H11        -4.4502    0.8891    0.6125 H         1 <0>         0.0938
     47 H12        -3.7560    2.5200    0.4497 H         1 <0>         0.1081
     48 H13        -3.0518   -1.0271   -0.1645 H         1 <0>         0.0874
     49 H14        -1.2858   -0.8054   -0.1439 H         1 <0>         0.0721
     50 H15        -1.3625   -0.3330    2.2812 H         1 <0>         0.0786
     51 H16        -3.1328   -0.5179    2.2691 H         1 <0>         0.0818
     52 H17        -4.1496   -2.6850    2.1307 H         1 <0>         0.1225
     53 H18        -3.8978   -5.1191    2.4023 H         1 <0>         0.1223
     54 H19        -1.6527   -6.1307    2.4166 H         1 <0>         0.1221
     55 H20         0.3398   -4.7092    2.1500 H         1 <0>         0.1223
     56 H21         0.8280   -1.7697    2.8051 H         1 <0>         0.0751
     57 H22         1.1922   -2.5696    1.2573 H         1 <0>         0.0711
     58 H23         0.1613   -1.1189    1.2885 H         1 <0>         0.0582
     59 H24         0.0285    0.2651    0.0415 H         1 <0>         0.4032
     60 H25         2.1878    0.7393    1.3303 H         1 <0>         0.1295
     61 H26         4.1537    2.2183    1.3830 H         1 <0>         0.1361
     62 H27         4.1011    4.3819    0.2112 H         1 <0>         0.1336
     63 H28         0.1161    3.5910   -1.0904 H         1 <0>         0.1544
@<TRIPOS>BOND
     1    1    2 1
     2    1   37 1
     3    1   38 1
     4    1   39 1
     5    2    3 1
     6    2   40 1
     7    2   41 1
     8    3    4 1
     9    4    9 ar
    10    4    5 ar
    11    5    6 ar
    12    5   42 1
    13    6    7 ar
    14    6   43 1
    15    7   14 1
    16    7    8 ar
    17    8    9 ar
    18    8   10 1
    19    9   44 1
    20   10   11 2
    21   10   45 1
    22   11   12 1
    23   11   16 1
    24   12   13 2
    25   12   14 am
    26   14   15 1
    27   16   17 1
    28   16   46 1
    29   16   47 1
    30   17   18 1
    31   17   27 am
    32   18   19 1
    33   18   48 1
    34   18   49 1
    35   19   20 1
    36   19   50 1
    37   19   51 1
    38   20   25 ar
    39   20   21 ar
    40   21   22 ar
    41   21   52 1
    42   22   23 ar
    43   22   53 1
    44   23   24 ar
    45   23   54 1
    46   24   25 ar
    47   24   55 1
    48   25   26 1
    49   26   56 1
    50   26   57 1
    51   26   58 1
    52   27   28 2
    53   27   29 am
    54   29   30 1
    55   29   59 1
    56   30   35 ar
    57   30   31 ar
    58   31   32 ar
    59   31   60 1
    60   32   33 ar
    61   32   61 1
    62   33   34 ar
    63   33   62 1
    64   34   35 ar
    65   34   36 1
    66   35   63 1
