@<TRIPOS>MOLECULE
ZINC02708114
   41    43     0     0     0
SMALL
USER_CHARGES
N-(3-acetylphenyl)-6-methyl-4,5,6,7-tetrahydrobenzothiophene-3-carboxamide
@<TRIPOS>ATOM
      1 C1         -0.8047    4.1393   -2.2873 C.3       1 <0>        -0.1476
      2 C2         -0.4353    3.5015   -0.9465 C.3       1 <0>        -0.0872
      3 H1          0.4632    3.9744   -0.5500 H         1 <0>         0.0763
      4 C3         -0.1830    2.0039   -1.1428 C.3       1 <0>        -0.1188
      5 C4          0.4235    1.4067    0.1283 C.3       1 <0>        -0.0564
      6 C5         -0.4544    1.7806    1.3160 C.2       1 <0>        -0.0714
      7 C6         -0.4198    1.0974    2.5953 C.2       1 <0>        -0.1674
      8 C7         -1.2706    1.5402    3.5842 C.2       1 <0>        -0.1766
      9 S1         -2.1173    2.8529    2.8198 S.3       1 <0>         0.1349
     10 C8         -1.3410    2.8015    1.2296 C.2       1 <0>        -0.1688
     11 C9         -1.5931    3.6827    0.0460 C.3       1 <0>        -0.0347
     12 C10         0.4949   -0.0315    2.8293 C.2       1 <0>         0.5723
     13 O1          1.2382   -0.4060    1.9422 O.2       1 <0>        -0.5055
     14 N1          0.5089   -0.6505    4.0264 N.am      1 <0>        -0.6723
     15 C11         1.2964   -1.7914    4.2148 C.ar      1 <0>         0.1374
     16 C12         1.8846   -2.0334    5.4512 C.ar      1 <0>        -0.1151
     17 C13         2.6593   -3.1619    5.6456 C.ar      1 <0>        -0.1108
     18 C14         2.8640   -4.0511    4.6110 C.ar      1 <0>        -0.0892
     19 C15         2.2820   -3.8150    3.3614 C.ar      1 <0>        -0.1528
     20 C16         1.4944   -2.6767    3.1677 C.ar      1 <0>        -0.0636
     21 C17         2.4984   -4.7610    2.2548 C.2       1 <0>         0.3923
     22 O2          1.9930   -4.5537    1.1724 O.2       1 <0>        -0.4501
     23 C18         3.3483   -5.9873    2.4671 C.3       1 <0>        -0.1912
     24 H2         -1.7067    3.6680   -2.6776 H         1 <0>         0.0572
     25 H3         -0.9838    5.2051   -2.1456 H         1 <0>         0.0573
     26 H4          0.0133    3.9992   -2.9940 H         1 <0>         0.0597
     27 H5          0.5056    1.8588   -1.9752 H         1 <0>         0.0720
     28 H6         -1.1261    1.5038   -1.3634 H         1 <0>         0.0651
     29 H7          0.4706    0.3217    0.0359 H         1 <0>         0.0923
     30 H8          1.4273    1.8048    0.2762 H         1 <0>         0.0781
     31 H9         -1.3860    1.1611    4.5889 H         1 <0>         0.1903
     32 H10        -1.6425    4.7233    0.3667 H         1 <0>         0.0831
     33 H11        -2.5322    3.3994   -0.4294 H         1 <0>         0.0859
     34 H12        -0.0270   -0.3050    4.7574 H         1 <0>         0.4100
     35 H13         1.7321   -1.3392    6.2644 H         1 <0>         0.1312
     36 H14         3.1095   -3.3457    6.6100 H         1 <0>         0.1355
     37 H15         3.4738   -4.9289    4.7658 H         1 <0>         0.1362
     38 H16         1.0415   -2.4882    2.2055 H         1 <0>         0.1465
     39 H17         2.7717   -6.7427    2.7784 H         1 <0>         0.0886
     40 H18         3.8312   -6.2615    1.5292 H         1 <0>         0.0896
     41 H19         4.1085   -5.7767    3.2193 H         1 <0>         0.0874
@<TRIPOS>BOND
     1    1    2 1
     2    1   24 1
     3    1   25 1
     4    1   26 1
     5    2    3 1
     6    2   11 1
     7    2    4 1
     8    4    5 1
     9    4   27 1
    10    4   28 1
    11    5    6 1
    12    5   29 1
    13    5   30 1
    14    6   10 2
    15    6    7 1
    16    7    8 2
    17    7   12 1
    18    8    9 1
    19    8   31 1
    20    9   10 1
    21   10   11 1
    22   11   32 1
    23   11   33 1
    24   12   13 2
    25   12   14 am
    26   14   15 1
    27   14   34 1
    28   15   20 ar
    29   15   16 ar
    30   16   17 ar
    31   16   35 1
    32   17   18 ar
    33   17   36 1
    34   18   19 ar
    35   18   37 1
    36   19   20 ar
    37   19   21 1
    38   20   38 1
    39   21   22 2
    40   21   23 1
    41   23   39 1
    42   23   40 1
    43   23   41 1
