@<TRIPOS>MOLECULE
ZINC02872897
   31    32     0     0     0
SMALL
USER_CHARGES
5-bromo-2-chloro-N-[1-(4-pyridyl)ethyl]benzamide
@<TRIPOS>ATOM
      1 C1          4.1667    6.1897    1.4338 C.3       1 <0>        -0.1597
      2 C2          3.6517    6.0423    0.0006 C.3       1 <0>         0.1849
      3 H1          4.3915    5.5113   -0.5985 H         1 <0>         0.1058
      4 C3          3.4131    7.4079   -0.5904 C.ar      1 <0>        -0.0492
      5 C4          2.2573    8.1156   -0.2980 C.ar      1 <0>        -0.1714
      6 C5          2.0749    9.3672   -0.8552 C.ar      1 <0>         0.1063
      7 N1          2.9797    9.8841   -1.6633 N.ar      1 <0>        -0.4832
      8 C6          4.0882    9.2378   -1.9671 C.ar      1 <0>         0.1063
      9 C7          4.3415    7.9839   -1.4440 C.ar      1 <0>        -0.1603
     10 N2          2.3963    5.2872    0.0081 N.am      1 <0>        -0.7219
     11 C8          2.4203    3.9397    0.0006 C.2       1 <0>         0.5594
     12 O1          3.4837    3.3508   -0.0123 O.2       1 <0>        -0.5035
     13 C9          1.1540    3.1781    0.0081 C.ar      1 <0>        -0.1262
     14 C10        -0.0691    3.8512    0.0234 C.ar      1 <0>        -0.0472
     15 C11        -1.2478    3.1340    0.0308 C.ar      1 <0>        -0.0998
     16 C12        -1.2200    1.7492    0.0174 C.ar      1 <0>        -0.0508
     17 C13        -0.0126    1.0758    0.0080 C.ar      1 <0>        -0.1120
     18 C14         1.1752    1.7813    0.0004 C.ar      1 <0>         0.0273
     19 Cl1         2.6904    0.9342   -0.0180 Cl        1 <0>        -0.0150
     20 Br1        -2.9054    4.0438    0.0509 Br        1 <0>        -0.0281
     21 H2          5.1008    6.7514    1.4282 H         1 <0>         0.0718
     22 H3          3.4270    6.7206    2.0329 H         1 <0>         0.0614
     23 H4          4.3393    5.2019    1.8612 H         1 <0>         0.0714
     24 H5          1.5105    7.6957    0.3595 H         1 <0>         0.1321
     25 H6          1.1791    9.9266   -0.6292 H         1 <0>         0.1588
     26 H7          4.8064    9.6934   -2.6328 H         1 <0>         0.1600
     27 H8          5.2513    7.4596   -1.6965 H         1 <0>         0.1394
     28 H9          1.5478    5.7571    0.0184 H         1 <0>         0.3985
     29 H10        -0.0925    4.9310    0.0291 H         1 <0>         0.1423
     30 H11        -2.1457    1.1930    0.0184 H         1 <0>         0.1500
     31 H12         0.0021   -0.0041    0.0020 H         1 <0>         0.1528
@<TRIPOS>BOND
     1    1    2 1
     2    1   21 1
     3    1   22 1
     4    1   23 1
     5    2    3 1
     6    2    4 1
     7    2   10 1
     8    4    9 ar
     9    4    5 ar
    10    5    6 ar
    11    5   24 1
    12    6    7 ar
    13    6   25 1
    14    7    8 ar
    15    8    9 ar
    16    8   26 1
    17    9   27 1
    18   10   11 am
    19   10   28 1
    20   11   12 2
    21   11   13 1
    22   13   18 ar
    23   13   14 ar
    24   14   15 ar
    25   14   29 1
    26   15   16 ar
    27   15   20 1
    28   16   17 ar
    29   16   30 1
    30   17   18 ar
    31   17   31 1
    32   18   19 1
