@<TRIPOS>MOLECULE
ZINC02793984
   38    41     0     0     0
SMALL
USER_CHARGES
N-(2-fluorophenyl)-5-(4-fluorophenyl)-2,6,7-triazabicyclo[4.3.0]nona-2,4,7,9-tetraene-8-carboxamide
@<TRIPOS>ATOM
      1 C1         -4.6518   -3.2441    0.4101 C.ar      1 <0>        -0.1091
      2 C2         -5.7711   -2.8089   -0.2753 C.ar      1 <0>        -0.1009
      3 C3         -5.7827   -1.5575   -0.8634 C.ar      1 <0>        -0.1353
      4 C4         -4.6736   -0.7368   -0.7671 C.ar      1 <0>         0.0763
      5 C5         -3.5470   -1.1724   -0.0778 C.ar      1 <0>         0.1095
      6 C6         -3.5385   -2.4319    0.5060 C.ar      1 <0>        -0.0936
      7 N1         -2.4224   -0.3451    0.0223 N.am      1 <0>        -0.6556
      8 C7         -1.1869   -0.8836    0.0149 C.2       1 <0>         0.6073
      9 O1         -1.0504   -2.0915    0.0032 O.2       1 <0>        -0.4910
     10 C8          0.0023   -0.0053    0.0210 C.2       1 <0>         0.0720
     11 C9          1.3344   -0.4343    0.0142 C.2       1 <0>        -0.1952
     12 C10         2.1382    0.6948    0.0227 C.2       1 <0>         0.2669
     13 N2          3.4694    0.8551    0.0205 N.2       1 <0>        -0.4576
     14 C11         4.0091    2.0519    0.0301 C.2       1 <0>         0.1899
     15 C12         3.2017    3.1932    0.0423 C.2       1 <0>        -0.2119
     16 C13         1.8398    3.0512    0.0444 C.2       1 <0>         0.2429
     17 N3          1.3042    1.7847    0.0345 N.pl3     1 <0>        -0.2972
     18 N4         -0.0150    1.3182    0.0332 N.2       1 <0>        -0.2874
     19 C14         0.9611    4.2380    0.0577 C.ar      1 <0>        -0.0998
     20 C15        -0.4233    4.0840    0.1598 C.ar      1 <0>        -0.0552
     21 C16        -1.2384    5.1958    0.1775 C.ar      1 <0>        -0.1576
     22 C17        -0.6872    6.4642    0.0822 C.ar      1 <0>         0.1291
     23 C18         0.6858    6.6228   -0.0246 C.ar      1 <0>        -0.1579
     24 C19         1.5110    5.5184   -0.0376 C.ar      1 <0>        -0.0504
     25 F1         -1.4911    7.5499    0.0939 F         1 <0>        -0.1302
     26 F2         -4.6845    0.4857   -1.3420 F         1 <0>        -0.1360
     27 H1         -4.6465   -4.2223    0.8678 H         1 <0>         0.1365
     28 H2         -6.6383   -3.4480   -0.3519 H         1 <0>         0.1367
     29 H3         -6.6582   -1.2209   -1.3987 H         1 <0>         0.1415
     30 H4         -2.6634   -2.7751    1.0379 H         1 <0>         0.1510
     31 H5         -2.5322    0.6158    0.0970 H         1 <0>         0.4202
     32 H6          1.6744   -1.4593    0.0037 H         1 <0>         0.1779
     33 H7          5.0841    2.1555    0.0284 H         1 <0>         0.1889
     34 H8          3.6476    4.1768    0.0503 H         1 <0>         0.1735
     35 H9         -0.8542    3.0961    0.2289 H         1 <0>         0.1632
     36 H10        -2.3088    5.0782    0.2609 H         1 <0>         0.1454
     37 H11         1.1098    7.6133   -0.0982 H         1 <0>         0.1476
     38 H12         2.5804    5.6430   -0.1215 H         1 <0>         0.1454
@<TRIPOS>BOND
     1    1    6 ar
     2    1    2 ar
     3    1   27 1
     4    2    3 ar
     5    2   28 1
     6    3    4 ar
     7    3   29 1
     8    4    5 ar
     9    4   26 1
    10    5    6 ar
    11    5    7 1
    12    6   30 1
    13    7    8 am
    14    7   31 1
    15    8    9 2
    16    8   10 1
    17   10   18 2
    18   10   11 1
    19   11   12 2
    20   11   32 1
    21   12   17 1
    22   12   13 1
    23   13   14 2
    24   14   15 1
    25   14   33 1
    26   15   16 2
    27   15   34 1
    28   16   17 1
    29   16   19 1
    30   17   18 1
    31   19   24 ar
    32   19   20 ar
    33   20   21 ar
    34   20   35 1
    35   21   22 ar
    36   21   36 1
    37   22   23 ar
    38   22   25 1
    39   23   24 ar
    40   23   37 1
    41   24   38 1
