@<TRIPOS>MOLECULE
ZINC01187415
   30    32     0     0     0
SMALL
USER_CHARGES
3-anilino-5-(2-thienylmethylene)-2-thioxo-thiazolidin-4-one
@<TRIPOS>ATOM
      1 C1          1.1705    2.0860    0.0021 C.ar      1 <0>        -0.1597
      2 C2         -0.0167    1.3768    0.0096 C.ar      1 <0>        -0.0714
      3 C3          0.0021   -0.0041    0.0020 C.ar      1 <0>        -0.1668
      4 C4          1.2152   -0.6806   -0.0132 C.ar      1 <0>         0.2087
      5 C5          2.4059    0.0349   -0.0208 C.ar      1 <0>        -0.1752
      6 C6          2.3799    1.4157   -0.0132 C.ar      1 <0>        -0.0717
      7 N1          1.2378   -2.0771   -0.0205 N.pl3     1 <0>        -0.5345
      8 N2          2.4622   -2.7578   -0.0359 N.am      1 <0>        -0.3222
      9 C7          2.8974   -3.3399    1.0680 C.2       1 <0>         0.5469
     10 O1          2.2499   -3.2939    2.0985 O.2       1 <0>        -0.4521
     11 C8          4.1494   -4.0249    1.0161 C.2       1 <0>        -0.2687
     12 C9          4.8119   -4.6970    2.0002 C.2       1 <0>         0.1625
     13 C10         6.0564   -5.3091    1.7240 C.2       1 <0>        -0.2239
     14 C11         6.8878   -6.0286    2.5756 C.2       1 <0>        -0.0668
     15 C12         8.0510   -6.5226    2.0392 C.2       1 <0>        -0.1827
     16 C13         8.3350   -6.2809    0.7326 C.2       1 <0>        -0.1651
     17 S1          6.9732   -5.3532    0.1941 S.3       1 <0>         0.1696
     18 S2          4.6118   -3.7605   -0.6903 S.3       1 <0>         0.0785
     19 C14         3.1782   -2.8142   -1.1807 C.2       1 <0>         0.2602
     20 S3          2.8068   -2.1456   -2.7124 S.2       1 <0>        -0.2811
     21 H1          1.1530    3.1659    0.0077 H         1 <0>         0.1243
     22 H2         -0.9595    1.9034    0.0169 H         1 <0>         0.1292
     23 H3         -0.9254   -0.5574    0.0083 H         1 <0>         0.1275
     24 H4          3.3508   -0.4880   -0.0323 H         1 <0>         0.1059
     25 H5          3.3052    1.9726   -0.0194 H         1 <0>         0.1247
     26 H6          0.4058   -2.5757   -0.0149 H         1 <0>         0.4336
     27 H7          4.3861   -4.7620    2.9906 H         1 <0>         0.1768
     28 H8          6.6287   -6.1937    3.6109 H         1 <0>         0.1517
     29 H9          8.7349   -7.0930    2.6503 H         1 <0>         0.1459
     30 H10         9.2006   -6.5915    0.1663 H         1 <0>         0.1959
@<TRIPOS>BOND
     1    1    6 ar
     2    1    2 ar
     3    1   21 1
     4    2    3 ar
     5    2   22 1
     6    3    4 ar
     7    3   23 1
     8    4    5 ar
     9    4    7 1
    10    5    6 ar
    11    5   24 1
    12    6   25 1
    13    7    8 1
    14    7   26 1
    15    8   19 1
    16    8    9 am
    17    9   10 2
    18    9   11 1
    19   11   12 2
    20   11   18 1
    21   12   13 1
    22   12   27 1
    23   13   17 1
    24   13   14 2
    25   14   15 1
    26   14   28 1
    27   15   16 2
    28   15   29 1
    29   16   17 1
    30   16   30 1
    31   18   19 1
    32   19   20 2
