@<TRIPOS>MOLECULE
ZINC03338005
   40    42     0     0     0
SMALL
USER_CHARGES
3-[(2,6-dichlorophenyl)methyl]-5-methyl-5-(p-tolyl)imidazolidine-2,4-dione
@<TRIPOS>ATOM
      1 C1         -5.8924    7.4527    4.5247 C.3       1 <0>        -0.1191
      2 C2         -4.8957    6.3557    4.2523 C.ar      1 <0>        -0.0746
      3 C3         -5.0857    5.0988    4.7954 C.ar      1 <0>        -0.1196
      4 C4         -4.1714    4.0925    4.5456 C.ar      1 <0>        -0.0920
      5 C5         -3.0676    4.3429    3.7520 C.ar      1 <0>        -0.1035
      6 C6         -2.8751    5.6012    3.2129 C.ar      1 <0>        -0.1039
      7 C7         -3.7916    6.6063    3.4591 C.ar      1 <0>        -0.1160
      8 C8         -2.0709    3.2459    3.4796 C.3       1 <0>         0.1691
      9 C9         -1.4236    3.4383    2.1225 C.2       1 <0>         0.5321
     10 O1         -0.7505    4.3789    1.7590 O.2       1 <0>        -0.4431
     11 N1         -1.7513    2.3461    1.4043 N.am      1 <0>        -0.5683
     12 C10        -2.5119    1.5014    2.1100 C.2       1 <0>         0.6996
     13 O2         -2.9357    0.4489    1.6743 O.2       1 <0>        -0.5203
     14 N2         -2.7521    1.9455    3.3570 N.am      1 <0>        -0.7191
     15 C11        -1.3317    2.1151    0.0198 C.3       1 <0>         0.1553
     16 C12        -0.0167    1.3791    0.0096 C.ar      1 <0>        -0.1113
     17 C13         1.1721    2.0864    0.0021 C.ar      1 <0>        -0.0126
     18 C14         2.3791    1.4102   -0.0135 C.ar      1 <0>        -0.1137
     19 C15         2.3972    0.0281   -0.0207 C.ar      1 <0>        -0.0827
     20 C16         1.2097   -0.6792   -0.0131 C.ar      1 <0>        -0.1138
     21 C17         0.0021   -0.0041    0.0020 C.ar      1 <0>        -0.0103
     22 Cl1        -1.4893   -0.8926    0.0109 Cl        1 <0>        -0.0198
     23 Cl2         1.1495    3.8223    0.0110 Cl        1 <0>        -0.0288
     24 C18        -1.0095    3.1996    4.5806 C.3       1 <0>        -0.1427
     25 H1         -5.5983    7.9961    5.4227 H         1 <0>         0.0739
     26 H2         -5.9187    8.1382    3.6776 H         1 <0>         0.0686
     27 H3         -6.8809    7.0174    4.6707 H         1 <0>         0.0683
     28 H4         -5.9483    4.9030    5.4151 H         1 <0>         0.1266
     29 H5         -4.3197    3.1106    4.9701 H         1 <0>         0.1216
     30 H6         -2.0104    5.7980    2.5964 H         1 <0>         0.1406
     31 H7         -3.6433    7.5882    3.0346 H         1 <0>         0.1268
     32 H8         -3.2753    1.4985    4.0406 H         1 <0>         0.4388
     33 H9         -1.2165    3.0719   -0.4893 H         1 <0>         0.1122
     34 H10        -2.0858    1.5187   -0.4937 H         1 <0>         0.1150
     35 H11         3.3072    1.9623   -0.0194 H         1 <0>         0.1422
     36 H12         3.3395   -0.4993   -0.0325 H         1 <0>         0.1441
     37 H13         1.2244   -1.7591   -0.0187 H         1 <0>         0.1422
     38 H14        -0.4584    4.1399    4.5938 H         1 <0>         0.0862
     39 H15        -1.4934    3.0484    5.5455 H         1 <0>         0.0814
     40 H16        -0.3206    2.3774    4.3868 H         1 <0>         0.0707
@<TRIPOS>BOND
     1    1    2 1
     2    1   25 1
     3    1   26 1
     4    1   27 1
     5    2    7 ar
     6    2    3 ar
     7    3    4 ar
     8    3   28 1
     9    4    5 ar
    10    4   29 1
    11    5    6 ar
    12    5    8 1
    13    6    7 ar
    14    6   30 1
    15    7   31 1
    16    8   14 1
    17    8    9 1
    18    8   24 1
    19    9   10 2
    20    9   11 am
    21   11   12 am
    22   11   15 1
    23   12   13 2
    24   12   14 am
    25   14   32 1
    26   15   16 1
    27   15   33 1
    28   15   34 1
    29   16   21 ar
    30   16   17 ar
    31   17   18 ar
    32   17   23 1
    33   18   19 ar
    34   18   35 1
    35   19   20 ar
    36   19   36 1
    37   20   21 ar
    38   20   37 1
    39   21   22 1
    40   24   38 1
    41   24   39 1
    42   24   40 1
