@<TRIPOS>MOLECULE
ZINC02997427
   49    52     0     0     0
SMALL
USER_CHARGES
N-[2-(3,4-dihydroisoquinolin-1-yl)phenyl]cyclohexanecarboxamide
@<TRIPOS>ATOM
      1 C1          3.9479    4.2585   -2.3553 C.ar      1 <0>        -0.0972
      2 C2          3.6966    3.0280   -2.9360 C.ar      1 <0>        -0.1251
      3 C3          3.2154    1.9835   -2.1709 C.ar      1 <0>        -0.0697
      4 C4          2.9952    2.1741   -0.8108 C.ar      1 <0>        -0.1086
      5 C5          3.2551    3.4167   -0.2287 C.ar      1 <0>        -0.0663
      6 C6          3.7299    4.4524   -1.0017 C.ar      1 <0>        -0.1176
      7 C7          3.0059    3.5933    1.2461 C.3       1 <0>        -0.1106
      8 C8          1.8112    2.7405    1.6691 C.3       1 <0>         0.0377
      9 N1          1.9519    1.3654    1.2015 N.2       1 <0>        -0.4968
     10 C9          2.4863    1.0805    0.0487 C.2       1 <0>         0.2491
     11 C10         2.5848   -0.3256   -0.3990 C.ar      1 <0>        -0.0772
     12 C11         1.4287   -1.0579   -0.6711 C.ar      1 <0>        -0.0671
     13 C12         1.5267   -2.3670   -1.0924 C.ar      1 <0>        -0.1357
     14 C13         2.7684   -2.9633   -1.2381 C.ar      1 <0>        -0.0879
     15 C14         3.9205   -2.2521   -0.9673 C.ar      1 <0>        -0.1236
     16 C15         3.8398   -0.9317   -0.5468 C.ar      1 <0>         0.1754
     17 N2          5.0022   -0.2117   -0.2724 N.am      1 <0>        -0.6695
     18 C16         6.1242   -0.4478   -0.9807 C.2       1 <0>         0.5199
     19 O1          6.0989   -1.2168   -1.9182 O.2       1 <0>        -0.5129
     20 C17         7.4102    0.2438   -0.6080 C.3       1 <0>        -0.1049
     21 C18         7.2219    1.7589   -0.7078 C.3       1 <0>        -0.1083
     22 C19         8.5275    2.4611   -0.3293 C.3       1 <0>        -0.1168
     23 C20         9.6387    2.0212   -1.2846 C.3       1 <0>        -0.1226
     24 C21         9.8270    0.5061   -1.1848 C.3       1 <0>        -0.1203
     25 C22         8.5214   -0.1961   -1.5633 C.3       1 <0>        -0.0990
     26 H1          4.3204    5.0716   -2.9607 H         1 <0>         0.1262
     27 H2          3.8737    2.8848   -3.9917 H         1 <0>         0.1265
     28 H3          3.0156    1.0241   -2.6248 H         1 <0>         0.1271
     29 H4          3.9323    5.4138   -0.5532 H         1 <0>         0.1272
     30 H5          2.7956    4.6421    1.4557 H         1 <0>         0.0904
     31 H6          3.8896    3.2820    1.8032 H         1 <0>         0.0822
     32 H7          0.9006    3.1688    1.2504 H         1 <0>         0.0817
     33 H8          1.7394    2.7423    2.7567 H         1 <0>         0.0995
     34 H9          0.4581   -0.5986   -0.5551 H         1 <0>         0.1278
     35 H10         0.6311   -2.9314   -1.3062 H         1 <0>         0.1285
     36 H11         2.8358   -3.9904   -1.5649 H         1 <0>         0.1288
     37 H12         4.8852   -2.7235   -1.0830 H         1 <0>         0.1380
     38 H13         5.0031    0.4590    0.4284 H         1 <0>         0.4086
     39 H14         7.6828   -0.0219    0.4134 H         1 <0>         0.1001
     40 H15         6.9493    2.0247   -1.7292 H         1 <0>         0.0703
     41 H16         6.4303    2.0723   -0.0272 H         1 <0>         0.0620
     42 H17         8.8001    2.1954    0.6920 H         1 <0>         0.0644
     43 H18         8.3934    3.5405   -0.4005 H         1 <0>         0.0664
     44 H19        10.5688    2.5215   -1.0150 H         1 <0>         0.0641
     45 H20         9.3661    2.2869   -2.3060 H         1 <0>         0.0633
     46 H21        10.0996    0.2404   -0.1634 H         1 <0>         0.0630
     47 H22        10.6186    0.1927   -1.8654 H         1 <0>         0.0676
     48 H23         8.6555   -1.2754   -1.4921 H         1 <0>         0.0707
     49 H24         8.2487    0.0697   -2.5846 H         1 <0>         0.0713
@<TRIPOS>BOND
     1    1    6 ar
     2    1    2 ar
     3    1   26 1
     4    2    3 ar
     5    2   27 1
     6    3    4 ar
     7    3   28 1
     8    4   10 1
     9    4    5 ar
    10    5    6 ar
    11    5    7 1
    12    6   29 1
    13    7    8 1
    14    7   30 1
    15    7   31 1
    16    8    9 1
    17    8   32 1
    18    8   33 1
    19    9   10 2
    20   10   11 1
    21   11   16 ar
    22   11   12 ar
    23   12   13 ar
    24   12   34 1
    25   13   14 ar
    26   13   35 1
    27   14   15 ar
    28   14   36 1
    29   15   16 ar
    30   15   37 1
    31   16   17 1
    32   17   18 am
    33   17   38 1
    34   18   19 2
    35   18   20 1
    36   20   25 1
    37   20   21 1
    38   20   39 1
    39   21   22 1
    40   21   40 1
    41   21   41 1
    42   22   23 1
    43   22   42 1
    44   22   43 1
    45   23   24 1
    46   23   44 1
    47   23   45 1
    48   24   25 1
    49   24   46 1
    50   24   47 1
    51   25   48 1
    52   25   49 1
