@<TRIPOS>MOLECULE
ZINC03287981
   34    36     0     0     0
SMALL
USER_CHARGES
N-(4,6-dimethylbenzothiazol-2-yl)-2-(3-thienyl)acetamide
@<TRIPOS>ATOM
      1 C1          2.4949    1.0647   -0.0160 C.3       1 <0>        -0.1132
      2 C2          1.1728    1.7877    0.0005 C.ar      1 <0>        -0.0630
      3 C3          1.1324    3.1747    0.0078 C.ar      1 <0>        -0.1131
      4 C4         -0.0561    3.8565    0.0228 C.ar      1 <0>        -0.0293
      5 C5         -1.2877    3.1615    0.0308 C.ar      1 <0>         0.0923
      6 C6         -1.2080    1.7503    0.0172 C.ar      1 <0>        -0.1704
      7 C7         -0.0126    1.0758    0.0080 C.ar      1 <0>        -0.0699
      8 S1         -2.9199    1.2748    0.0226 S.3       1 <0>         0.0964
      9 C8         -3.6106    2.9231    0.0342 C.2       1 <0>         0.3518
     10 N1         -2.5360    3.6769    0.0450 N.2       1 <0>        -0.5382
     11 N2         -4.9416    3.3074    0.0426 N.am      1 <0>        -0.6128
     12 C9         -5.9129    2.3730    0.0422 C.2       1 <0>         0.5149
     13 O1         -5.6217    1.1958    0.0345 O.2       1 <0>        -0.4802
     14 C10        -7.3607    2.7911    0.0514 C.3       1 <0>        -0.0736
     15 C11        -8.2375    1.5654    0.0490 C.2       1 <0>        -0.1153
     16 C12        -8.6556    1.0043   -1.1431 C.2       1 <0>        -0.1474
     17 C13        -9.4390   -0.1013   -1.1102 C.2       1 <0>        -0.1694
     18 S2         -9.6197   -0.3737    0.6449 S.3       1 <0>         0.0489
     19 C14        -8.6325    0.9999    1.2158 C.2       1 <0>        -0.1576
     20 C15        -0.0506    5.3634    0.0313 C.3       1 <0>        -0.1117
     21 H1          2.8038    0.8959   -1.0476 H         1 <0>         0.0757
     22 H2          3.2456    1.6685    0.4939 H         1 <0>         0.0716
     23 H3          2.3915    0.1068    0.4937 H         1 <0>         0.0703
     24 H4          2.0590    3.7295    0.0019 H         1 <0>         0.1331
     25 H5          0.0021   -0.0041    0.0020 H         1 <0>         0.1320
     26 H6         -5.1745    4.2490    0.0488 H         1 <0>         0.4280
     27 H7         -7.5630    3.3807    0.9455 H         1 <0>         0.1151
     28 H8         -7.5715    3.3903   -0.8344 H         1 <0>         0.1145
     29 H9         -8.3590    1.4380   -2.0867 H         1 <0>         0.1332
     30 H10        -9.8513   -0.6675   -1.9323 H         1 <0>         0.1871
     31 H11        -8.4086    1.3022    2.2282 H         1 <0>         0.1855
     32 H12        -0.0589    5.7326   -0.9942 H         1 <0>         0.0727
     33 H13        -0.9345    5.7270    0.5555 H         1 <0>         0.0739
     34 H14         0.8454    5.7207    0.5388 H         1 <0>         0.0680
@<TRIPOS>BOND
     1    1    2 1
     2    1   21 1
     3    1   22 1
     4    1   23 1
     5    2    7 ar
     6    2    3 ar
     7    3    4 ar
     8    3   24 1
     9    4    5 ar
    10    4   20 1
    11    5   10 1
    12    5    6 ar
    13    6    7 ar
    14    6    8 1
    15    7   25 1
    16    8    9 1
    17    9   10 2
    18    9   11 1
    19   11   12 am
    20   11   26 1
    21   12   13 2
    22   12   14 1
    23   14   15 1
    24   14   27 1
    25   14   28 1
    26   15   19 2
    27   15   16 1
    28   16   17 2
    29   16   29 1
    30   17   18 1
    31   17   30 1
    32   18   19 1
    33   19   31 1
    34   20   32 1
    35   20   33 1
    36   20   34 1
