@<TRIPOS>MOLECULE
ZINC20430693
   29    30     0     0     0
SMALL
USER_CHARGES
N-(2-bromo-4-fluoro-phenyl)pyrrolidine-1-sulfonamide
@<TRIPOS>ATOM
      1 C1          2.3162    5.1584   -2.5160 C.ar      1 <0>        -0.1028
      2 C2          2.9286    3.9233   -2.4230 C.ar      1 <0>        -0.1463
      3 C3          2.5480    2.8950   -3.2743 C.ar      1 <0>         0.1876
      4 C4          1.5553    3.1121   -4.2224 C.ar      1 <0>        -0.0923
      5 C5          0.9418    4.3472   -4.3078 C.ar      1 <0>        -0.1007
      6 C6          1.3239    5.3713   -3.4575 C.ar      1 <0>         0.0896
      7 F1          0.7270    6.5800   -3.5467 F         1 <0>        -0.1298
      8 Br1         1.0398    1.7165   -5.3896 Br        1 <0>        -0.0233
      9 N1          3.1667    1.6439   -3.1819 N.pl3     1 <0>        -1.0779
     10 S1          3.6251    1.0541   -1.7039 S.o2      1 <0>         2.8005
     11 O1          4.4385    2.0522   -1.1028 O.2       1 <0>        -0.9623
     12 O2          4.0834   -0.2734   -1.9208 O.2       1 <0>        -0.9585
     13 N2          2.2573    0.9372   -0.7777 N.pl3     1 <0>        -1.0161
     14 C7          1.7177    1.9955    0.0954 C.3       1 <0>         0.1118
     15 C8          0.2080    1.6728    0.2233 C.3       1 <0>        -0.1315
     16 C9          0.2236    0.1219    0.2662 C.3       1 <0>        -0.1233
     17 C10         1.3792   -0.2389   -0.6909 C.3       1 <0>         0.1222
     18 H1          2.6122    5.9585   -1.8538 H         1 <0>         0.1516
     19 H2          3.7032    3.7582   -1.6888 H         1 <0>         0.1765
     20 H3          0.1672    4.5154   -5.0413 H         1 <0>         0.1512
     21 H4          3.3488    1.0518   -4.0909 H         1 <0>         0.4561
     22 H5          2.2257    1.9609    1.0704 H         1 <0>         0.0745
     23 H6          1.8863    2.9773   -0.3712 H         1 <0>         0.0735
     24 H7         -0.1878    2.1288    1.1427 H         1 <0>         0.0852
     25 H8         -0.3286    2.0779   -0.6473 H         1 <0>         0.0757
     26 H9          0.4073   -0.2145    1.2972 H         1 <0>         0.0801
     27 H10        -0.7472   -0.2642   -0.0780 H         1 <0>         0.0845
     28 H11         0.9910   -0.4813   -1.6912 H         1 <0>         0.0686
     29 H12         1.9501   -1.0949   -0.3019 H         1 <0>         0.0758
@<TRIPOS>BOND
     1    1    6 ar
     2    1    2 ar
     3    1   18 1
     4    2    3 ar
     5    2   19 1
     6    3    4 ar
     7    3    9 1
     8    4    5 ar
     9    4    8 1
    10    5    6 ar
    11    5   20 1
    12    6    7 1
    13    9   10 1
    14    9   21 1
    15   10   11 2
    16   10   12 2
    17   10   13 1
    18   13   17 1
    19   13   14 1
    20   14   15 1
    21   14   22 1
    22   14   23 1
    23   15   16 1
    24   15   24 1
    25   15   25 1
    26   16   17 1
    27   16   26 1
    28   16   27 1
    29   17   28 1
    30   17   29 1
