@<TRIPOS>MOLECULE
ZINC20132207
   33    34     0     0     0
SMALL
USER_CHARGES
(2R)-2-bromo-N-(5,6-dimethyl-1,3-benzothiazol-2-yl)butanamide
@<TRIPOS>ATOM
      1 C1          5.8382    9.0017    1.1051 C.3       1 <0>        -0.1605
      2 C2          5.5809    7.4965    1.0092 C.3       1 <0>        -0.1179
      3 C3          4.4628    7.2336   -0.0016 C.3       1 <0>        -0.0767
      4 H1          3.5819    7.6587    0.5018 H         1 <0>         0.1336
      5 C4          4.1250    5.7650   -0.0063 C.2       1 <0>         0.5146
      6 O1          5.0125    4.9387   -0.0192 O.2       1 <0>        -0.4751
      7 N1          2.8365    5.3699    0.0039 N.am      1 <0>        -0.6204
      8 C5          2.5259    4.0198   -0.0004 C.2       1 <0>         0.3595
      9 N2          1.3451    3.4466    0.0078 N.2       1 <0>        -0.5415
     10 C6          1.1892    2.1051    0.0020 C.ar      1 <0>         0.0989
     11 C7         -0.0165    1.3660    0.0096 C.ar      1 <0>        -0.0674
     12 C8          0.0021   -0.0041    0.0020 C.ar      1 <0>        -0.0723
     13 C9          1.1947   -0.7130   -0.0137 C.ar      1 <0>        -0.0680
     14 C10         2.3928   -0.0227   -0.0215 C.ar      1 <0>        -0.0583
     15 C11         2.3840    1.3499   -0.0136 C.ar      1 <0>        -0.1788
     16 S1          3.6311    2.6153   -0.0185 S.3       1 <0>         0.0931
     17 C12         1.1845   -2.2199   -0.0227 C.3       1 <0>        -0.1151
     18 C13        -1.3026   -0.7582    0.0105 C.3       1 <0>        -0.1224
     19 Br1         5.0601    7.7745   -1.7949 Br        1 <0>        -0.0622
     20 H2          6.6421    9.1907    1.8318 H         1 <0>         0.0696
     21 H3          4.9199    9.5104    1.4335 H         1 <0>         0.0604
     22 H4          6.1376    9.3860    0.1189 H         1 <0>         0.0691
     23 H5          6.4992    6.9878    0.6808 H         1 <0>         0.0893
     24 H6          5.2815    7.1121    1.9954 H         1 <0>         0.0842
     25 H7          2.0315    6.1194    0.0156 H         1 <0>         0.4573
     26 H8         -0.9624    1.8873    0.0169 H         1 <0>         0.1318
     27 H9          3.3295   -0.5600   -0.0340 H         1 <0>         0.1331
     28 H10         2.2190   -2.5935   -0.0349 H         1 <0>         0.0692
     29 H11         0.6549   -2.5776   -0.9180 H         1 <0>         0.0761
     30 H12         0.6721   -2.5885    0.8782 H         1 <0>         0.0760
     31 H13        -1.1011   -1.8396    0.0027 H         1 <0>         0.0745
     32 H14        -1.8881   -0.4879   -0.8806 H         1 <0>         0.0732
     33 H15        -1.8708   -0.4976    0.9156 H         1 <0>         0.0732
@<TRIPOS>BOND
     1    1    2 1
     2    1   20 1
     3    1   21 1
     4    1   22 1
     5    2    3 1
     6    2   23 1
     7    2   24 1
     8    3    4 1
     9    3    5 1
    10    3   19 1
    11    5    6 2
    12    5    7 am
    13    7    8 1
    14    7   25 1
    15    8   16 1
    16    8    9 2
    17    9   10 1
    18   10   15 ar
    19   10   11 ar
    20   11   12 ar
    21   11   26 1
    22   12   13 ar
    23   12   18 1
    24   13   14 ar
    25   13   17 1
    26   14   15 ar
    27   14   27 1
    28   15   16 1
    29   17   28 1
    30   17   29 1
    31   17   30 1
    32   18   31 1
    33   18   32 1
    34   18   33 1
