@<TRIPOS>MOLECULE
ZINC01786011
   48    51     0     0     0
SMALL
USER_CHARGES
N'-(3,5-dichlorophenyl)-3-methyl-5-oxo-N-(p-tolyl)-9-thia-2,6-diazabicyclo[4.3.0]nona-1,3,7-triene-7,8-dicarboxamide
@<TRIPOS>ATOM
      1 C1          9.7630    3.5139   -2.2824 C.3       1 <0>        -0.1137
      2 C2          8.3811    3.7355   -1.7235 C.ar      1 <0>        -0.0980
      3 C3          8.1854    3.7542   -0.3547 C.ar      1 <0>        -0.1022
      4 C4          6.9204    3.9570    0.1608 C.ar      1 <0>        -0.1343
      5 C5          5.8440    4.1429   -0.6973 C.ar      1 <0>         0.1434
      6 C6          6.0433    4.1188   -2.0718 C.ar      1 <0>        -0.1102
      7 C7          7.3117    3.9202   -2.5806 C.ar      1 <0>        -0.1018
      8 N1          4.5620    4.3481   -0.1788 N.am      1 <0>        -0.6438
      9 C8          3.4819    3.9266   -0.8658 C.2       1 <0>         0.5930
     10 O1          3.6239    3.2581   -1.8720 O.2       1 <0>        -0.4726
     11 C9          2.1302    4.2752   -0.3985 C.2       1 <0>         0.1315
     12 C10         1.5322    3.5287    0.5770 C.2       1 <0>        -0.2047
     13 S1         -0.0418    4.3535    0.7525 S.3       1 <0>         0.2040
     14 C11         0.2173    5.6240   -0.4665 C.2       1 <0>         0.3357
     15 N2          1.4715    5.3522   -0.9442 N.am      1 <0>        -0.4688
     16 C12         1.9432    6.1842   -1.9212 C.2       1 <0>         0.5216
     17 O2          3.0537    6.0031   -2.3945 O.2       1 <0>        -0.4848
     18 C13         1.1532    7.2415   -2.3765 C.2       1 <0>        -0.2859
     19 C14        -0.0902    7.4407   -1.8429 C.2       1 <0>         0.2081
     20 N3         -0.5241    6.6154   -0.8931 N.2       1 <0>        -0.4796
     21 C15        -0.9554    8.5774   -2.3227 C.3       1 <0>        -0.1103
     22 C16         2.0492    2.3463    1.2936 C.2       1 <0>         0.6123
     23 O3          3.1851    1.9623    1.0927 O.2       1 <0>        -0.4680
     24 N4          1.2620    1.6923    2.1706 N.am      1 <0>        -0.6566
     25 C17         1.7881    0.6508    2.9403 C.ar      1 <0>         0.1705
     26 C18         1.0044   -0.4553    3.2429 C.ar      1 <0>        -0.1257
     27 C19         1.5289   -1.4862    3.9998 C.ar      1 <0>        -0.0038
     28 C20         2.8302   -1.4121    4.4648 C.ar      1 <0>        -0.1100
     29 C21         3.6114   -0.3086    4.1697 C.ar      1 <0>        -0.0031
     30 C22         3.0937    0.7227    3.4088 C.ar      1 <0>        -0.1052
     31 Cl1         5.2433   -0.2198    4.7551 Cl        1 <0>        -0.0429
     32 Cl2         0.5520   -2.8718    4.3733 Cl        1 <0>        -0.0435
     33 H1          9.9295    2.4464   -2.4272 H         1 <0>         0.0703
     34 H2          9.8551    4.0289   -3.2386 H         1 <0>         0.0661
     35 H3         10.5039    3.9059   -1.5857 H         1 <0>         0.0661
     36 H4          9.0227    3.6096    0.3120 H         1 <0>         0.1271
     37 H5          6.7682    3.9715    1.2300 H         1 <0>         0.1257
     38 H6          5.2078    4.2585   -2.7417 H         1 <0>         0.1387
     39 H7          7.4681    3.9054   -3.6491 H         1 <0>         0.1257
     40 H8          4.4499    4.7938    0.6754 H         1 <0>         0.4094
     41 H9          1.5229    7.9002   -3.1483 H         1 <0>         0.1730
     42 H10        -1.9007    8.5687   -1.7799 H         1 <0>         0.0892
     43 H11        -0.4436    9.5234   -2.1458 H         1 <0>         0.0957
     44 H12        -1.1479    8.4624   -3.3894 H         1 <0>         0.0957
     45 H13         0.3293    1.9417    2.2647 H         1 <0>         0.4179
     46 H14        -0.0126   -0.5118    2.8836 H         1 <0>         0.1482
     47 H15         3.2367   -2.2168    5.0595 H         1 <0>         0.1500
     48 H16         3.7039    1.5835    3.1784 H         1 <0>         0.1505
@<TRIPOS>BOND
     1    1    2 1
     2    1   33 1
     3    1   34 1
     4    1   35 1
     5    2    7 ar
     6    2    3 ar
     7    3    4 ar
     8    3   36 1
     9    4    5 ar
    10    4   37 1
    11    5    6 ar
    12    5    8 1
    13    6    7 ar
    14    6   38 1
    15    7   39 1
    16    8    9 am
    17    8   40 1
    18    9   10 2
    19    9   11 1
    20   11   15 1
    21   11   12 2
    22   12   13 1
    23   12   22 1
    24   13   14 1
    25   14   20 2
    26   14   15 1
    27   15   16 am
    28   16   17 2
    29   16   18 1
    30   18   19 2
    31   18   41 1
    32   19   20 1
    33   19   21 1
    34   21   42 1
    35   21   43 1
    36   21   44 1
    37   22   23 2
    38   22   24 am
    39   24   25 1
    40   24   45 1
    41   25   30 ar
    42   25   26 ar
    43   26   27 ar
    44   26   46 1
    45   27   28 ar
    46   27   32 1
    47   28   29 ar
    48   28   47 1
    49   29   30 ar
    50   29   31 1
    51   30   48 1
