@<TRIPOS>MOLECULE
CHEMBL184367
   67    72     0     0     0
SMALL
USER_CHARGES

@<TRIPOS>ATOM
      1 C1          0.4444   -0.4716   -0.7508 C.ar      1 <0>        -0.0874
      2 C2          1.6413    0.2127   -0.8378 C.ar      1 <0>        -0.1389
      3 C3          1.7270    1.5190   -0.3788 C.ar      1 <0>         0.1157
      4 C4          0.6100    2.1349    0.1667 C.ar      1 <0>        -0.1460
      5 C5         -0.5846    1.4463    0.2515 C.ar      1 <0>        -0.0836
      6 C6         -0.6675    0.1444   -0.2067 C.ar      1 <0>        -0.0897
      7 C7         -1.9720   -0.6043   -0.1133 C.3       1 <0>        -0.0640
      8 H1         -2.7891    0.0939    0.0687 H         1 <0>         0.1382
      9 C8         -1.9031   -1.6391    1.0222 C.3       1 <0>         0.1499
     10 H2         -2.7985   -2.2604    1.0041 H         1 <0>         0.0961
     11 O1         -0.7558   -2.4542    0.8376 O.3       1 <0>        -0.3049
     12 C9         -0.5745   -3.1945   -0.2811 C.ar      1 <0>         0.1212
     13 C10         0.2607   -4.3056   -0.1905 C.ar      1 <0>        -0.1141
     14 C11         0.5027   -5.0955   -1.2954 C.ar      1 <0>        -0.1061
     15 C12        -0.0850   -4.7905   -2.5144 C.ar      1 <0>         0.0984
     16 C13        -0.9224   -3.6914   -2.6151 C.ar      1 <0>        -0.0901
     17 C14        -1.1719   -2.9001   -1.5016 C.ar      1 <0>        -0.1478
     18 S1         -2.2724   -1.5236   -1.6557 S.3       1 <0>        -0.0843
     19 O2          0.1600   -5.5656   -3.6045 O.3       1 <0>        -0.4915
     20 C15        -1.8102   -0.9276    2.3475 C.ar      1 <0>        -0.1052
     21 C16        -0.5968   -0.4212    2.7752 C.ar      1 <0>        -0.0345
     22 C17        -0.5088    0.2310    3.9899 C.ar      1 <0>        -0.1420
     23 C18        -1.6393    0.3780    4.7804 C.ar      1 <0>         0.1248
     24 C19        -2.8557   -0.1306    4.3487 C.ar      1 <0>        -0.2040
     25 C20        -2.9395   -0.7775    3.1309 C.ar      1 <0>        -0.0588
     26 O3         -1.5553    1.0188    5.9759 O.3       1 <0>        -0.3255
     27 C21        -2.7595    1.1332    6.7367 C.3       1 <0>         0.0290
     28 C22        -2.4698    1.8785    8.0411 C.3       1 <0>        -0.0102
     29 N1         -2.0692    3.2589    7.7377 N.4       1 <0>        -0.3923
     30 C23        -1.7987    4.0131    8.9906 C.3       1 <0>         0.0337
     31 C24        -2.9536    3.7149    9.9601 C.3       1 <0>        -0.1482
     32 C25        -4.2537    4.2649    9.3664 C.3       1 <0>        -0.1404
     33 C26        -4.4525    3.7089    7.9535 C.3       1 <0>        -0.1493
     34 C27        -3.1960    4.0074    7.1199 C.3       1 <0>         0.0287
     35 C28        -2.8280    5.4936    7.3348 C.3       1 <0>        -0.1395
     36 C29        -1.9047    5.4973    8.5710 C.3       1 <0>        -0.1416
     37 O4          2.9035    2.1942   -0.4629 O.3       1 <0>        -0.4998
     38 H3          0.3759   -1.4871   -1.1121 H         1 <0>         0.1323
     39 H4          2.5096   -0.2690   -1.2626 H         1 <0>         0.1315
     40 H5          0.6743    3.1516    0.5251 H         1 <0>         0.1293
     41 H6         -1.4545    1.9252    0.6761 H         1 <0>         0.1234
     42 H7          0.7236   -4.5510    0.7539 H         1 <0>         0.1413
     43 H8          1.1522   -5.9542   -1.2111 H         1 <0>         0.1429
     44 H9         -1.3820   -3.4493   -3.5620 H         1 <0>         0.1404
     45 H10        -0.4613   -6.2986   -3.7135 H         1 <0>         0.3945
     46 H11         0.2830   -0.5359    2.1595 H         1 <0>         0.1386
     47 H12         0.4393    0.6258    4.3239 H         1 <0>         0.1349
     48 H13        -3.7372   -0.0175    4.9624 H         1 <0>         0.1309
     49 H14        -3.8871   -1.1697    2.7924 H         1 <0>         0.1345
     50 H15        -3.5024    1.6846    6.1604 H         1 <0>         0.0849
     51 H16        -3.1415    0.1380    6.9641 H         1 <0>         0.1078
     52 H17        -3.3664    1.8883    8.6609 H         1 <0>         0.1587
     53 H18        -1.6640    1.3756    8.5757 H         1 <0>         0.1410
     54 H19        -0.8234    3.7732    9.4141 H         1 <0>         0.1508
     55 H20        -3.0434    2.6378   10.1007 H         1 <0>         0.0903
     56 H21        -2.7584    4.1950   10.9191 H         1 <0>         0.1131
     57 H22        -5.0934    3.9674    9.9945 H         1 <0>         0.0945
     58 H23        -4.2012    5.3528    9.3240 H         1 <0>         0.0892
     59 H24        -4.6097    2.6315    8.0038 H         1 <0>         0.0891
     60 H25        -5.3180    4.1847    7.4924 H         1 <0>         0.1128
     61 H26        -3.3314    3.7550    6.0682 H         1 <0>         0.1463
     62 H27        -2.2989    5.8830    6.4650 H         1 <0>         0.0985
     63 H28        -3.7246    6.0821    7.5293 H         1 <0>         0.1132
     64 H29        -2.3474    6.0876    9.3733 H         1 <0>         0.1136
     65 H30        -0.9217    5.8886    8.3090 H         1 <0>         0.0991
     66 H31         3.0167    2.6858   -1.2878 H         1 <0>         0.3954
     67 H32        -1.2616    3.2694    7.1328 H         1 <0>         0.4308
@<TRIPOS>BOND
     1    1    6 ar
     2    1    2 ar
     3    1   38 1
     4    2    3 ar
     5    2   39 1
     6    3    4 ar
     7    3   37 1
     8    4    5 ar
     9    4   40 1
    10    5    6 ar
    11    5   41 1
    12    6    7 1
    13    7    8 1
    14    7   18 1
    15    7    9 1
    16    9   10 1
    17    9   11 1
    18    9   20 1
    19   11   12 1
    20   12   17 ar
    21   12   13 ar
    22   13   14 ar
    23   13   42 1
    24   14   15 ar
    25   14   43 1
    26   15   16 ar
    27   15   19 1
    28   16   17 ar
    29   16   44 1
    30   17   18 1
    31   19   45 1
    32   20   25 ar
    33   20   21 ar
    34   21   22 ar
    35   21   46 1
    36   22   23 ar
    37   22   47 1
    38   23   24 ar
    39   23   26 1
    40   24   25 ar
    41   24   48 1
    42   25   49 1
    43   26   27 1
    44   27   28 1
    45   27   50 1
    46   27   51 1
    47   28   29 1
    48   28   52 1
    49   28   53 1
    50   29   34 1
    51   29   30 1
    52   29   67 1
    53   30   36 1
    54   30   31 1
    55   30   54 1
    56   31   32 1
    57   31   55 1
    58   31   56 1
    59   32   33 1
    60   32   57 1
    61   32   58 1
    62   33   34 1
    63   33   59 1
    64   33   60 1
    65   34   35 1
    66   34   61 1
    67   35   36 1
    68   35   62 1
    69   35   63 1
    70   36   64 1
    71   36   65 1
    72   37   66 1
