@<TRIPOS>MOLECULE
CHEMBL95882
   53    58     0     0     0
SMALL
USER_CHARGES

@<TRIPOS>ATOM
      1 C1         -0.0479    1.3314   -0.0464 C.ar      1 <0>        -0.1163
      2 C2          1.1293    2.0759   -0.0521 C.ar      1 <0>        -0.1101
      3 C3          2.3461    1.4624   -0.0497 C.ar      1 <0>        -0.1079
      4 C4          2.4178    0.0630   -0.0415 C.ar      1 <0>        -0.0247
      5 C5          1.2223   -0.6959   -0.0358 C.ar      1 <0>        -0.0506
      6 C6         -0.0155   -0.0296   -0.0385 C.ar      1 <0>        -0.1030
      7 C7          1.2928   -2.0997   -0.0271 C.ar      1 <0>        -0.0948
      8 C8          2.5046   -2.7238   -0.0242 C.ar      1 <0>        -0.1147
      9 C9          3.6879   -1.9967   -0.0293 C.ar      1 <0>        -0.0831
     10 C10         3.6656   -0.6095   -0.0384 C.ar      1 <0>        -0.0199
     11 C11         4.9262    0.1570   -0.0442 C.2       1 <0>        -0.0258
     12 C12         5.6898    0.6209    1.1234 C.ar      1 <0>        -0.1409
     13 C13         5.5091    0.5121    2.5031 C.ar      1 <0>        -0.0349
     14 C14         6.4219    1.0674    3.3534 C.ar      1 <0>        -0.1579
     15 C15         7.5323    1.7422    2.8501 C.ar      1 <0>         0.1528
     16 C16         7.7258    1.8593    1.4850 C.ar      1 <0>        -0.1434
     17 C17         6.8073    1.2994    0.6058 C.ar      1 <0>         0.0913
     18 O1          6.7380    1.2572   -0.7399 O.3       1 <0>        -0.1697
     19 C18         5.6422    0.5855   -1.1523 C.2       1 <0>        -0.0424
     20 C19         5.2678    0.3501   -2.5450 C.2       1 <0>         0.4755
     21 O2          4.3048   -0.3487   -2.8072 O.2       1 <0>        -0.4082
     22 C20         6.0565    0.9593   -3.6348 C.ar      1 <0>        -0.1607
     23 C21         5.6246    0.8461   -4.9590 C.ar      1 <0>        -0.0446
     24 C22         6.3608    1.4144   -5.9766 C.ar      1 <0>        -0.1299
     25 C23         7.5316    2.1000   -5.6844 C.ar      1 <0>         0.1045
     26 C24         7.9665    2.2168   -4.3688 C.ar      1 <0>         0.0535
     27 C25         7.2338    1.6552   -3.3425 C.ar      1 <0>        -0.0660
     28 O3          9.1193    2.8957   -4.0979 O.3       1 <0>        -0.3146
     29 C26        10.3272    2.2833   -4.5536 C.3       1 <0>         0.0577
     30 C27        10.5942    2.6343   -6.0089 C.3       1 <0>        -0.1894
     31 C28         9.5361    2.0698   -6.9438 C.3       1 <0>         0.0604
     32 O4          8.2628    2.6649   -6.6869 O.3       1 <0>        -0.3182
     33 O5          8.4323    2.2902    3.7070 O.3       1 <0>        -0.4901
     34 H1         -1.0000    1.8412   -0.0438 H         1 <0>         0.1248
     35 H2          1.0770    3.1546   -0.0587 H         1 <0>         0.1236
     36 H3          3.2510    2.0520   -0.0546 H         1 <0>         0.1196
     37 H4         -0.9360   -0.5945   -0.0338 H         1 <0>         0.1292
     38 H5          0.3851   -2.6849   -0.0223 H         1 <0>         0.1294
     39 H6          2.5453   -3.8030   -0.0175 H         1 <0>         0.1279
     40 H7          4.6347   -2.5162   -0.0265 H         1 <0>         0.1234
     41 H8          4.6494   -0.0096    2.8971 H         1 <0>         0.1369
     42 H9          6.2824    0.9834    4.4211 H         1 <0>         0.1417
     43 H10         8.5890    2.3847    1.1039 H         1 <0>         0.1446
     44 H11         4.7133    0.3126   -5.1854 H         1 <0>         0.1471
     45 H12         6.0270    1.3259   -7.0000 H         1 <0>         0.1460
     46 H13         7.5700    1.7490   -2.3205 H         1 <0>         0.1570
     47 H14        11.1593    2.6321   -3.9420 H         1 <0>         0.1078
     48 H15        10.2399    1.2012   -4.4558 H         1 <0>         0.0586
     49 H16        10.6144    3.7191   -6.1125 H         1 <0>         0.0865
     50 H17        11.5674    2.2358   -6.2955 H         1 <0>         0.0942
     51 H18         9.8246    2.2712   -7.9754 H         1 <0>         0.1092
     52 H19         9.4648    0.9922   -6.7959 H         1 <0>         0.0601
     53 H20         9.1519    1.6941    3.9558 H         1 <0>         0.3986
@<TRIPOS>BOND
     1    1    6 ar
     2    1    2 ar
     3    1   34 1
     4    2    3 ar
     5    2   35 1
     6    3    4 ar
     7    3   36 1
     8    4   10 ar
     9    4    5 ar
    10    5    6 ar
    11    5    7 ar
    12    6   37 1
    13    7    8 ar
    14    7   38 1
    15    8    9 ar
    16    8   39 1
    17    9   10 ar
    18    9   40 1
    19   10   11 1
    20   11   19 2
    21   11   12 1
    22   12   17 ar
    23   12   13 ar
    24   13   14 ar
    25   13   41 1
    26   14   15 ar
    27   14   42 1
    28   15   16 ar
    29   15   33 1
    30   16   17 ar
    31   16   43 1
    32   17   18 1
    33   18   19 1
    34   19   20 1
    35   20   21 2
    36   20   22 1
    37   22   27 ar
    38   22   23 ar
    39   23   24 ar
    40   23   44 1
    41   24   25 ar
    42   24   45 1
    43   25   32 1
    44   25   26 ar
    45   26   27 ar
    46   26   28 1
    47   27   46 1
    48   28   29 1
    49   29   30 1
    50   29   47 1
    51   29   48 1
    52   30   31 1
    53   30   49 1
    54   30   50 1
    55   31   32 1
    56   31   51 1
    57   31   52 1
    58   33   53 1
