@<TRIPOS>MOLECULE
CHEMBL371072
   56    60     0     0     0
SMALL
USER_CHARGES

@<TRIPOS>ATOM
      1 C1          0.8656   -0.3580   -0.9926 C.3       1 <0>        -0.0543
      2 N1         -0.0118   -0.0050    0.1314 N.4       1 <0>        -0.3892
      3 C2         -0.0444    1.4554    0.2873 C.3       1 <0>        -0.0475
      4 C3         -1.3695   -0.4996   -0.1331 C.3       1 <0>        -0.0014
      5 C4         -1.3621   -2.0295   -0.1432 C.3       1 <0>         0.0239
      6 O1         -1.0224   -2.5127    1.1580 O.3       1 <0>        -0.3275
      7 C5         -0.9712   -3.8609    1.3216 C.ar      1 <0>         0.1231
      8 C6         -1.2368   -4.7013    0.2502 C.ar      1 <0>        -0.2012
      9 C7         -1.1837   -6.0714    0.4189 C.ar      1 <0>        -0.0553
     10 C8         -0.8666   -6.6053    1.6543 C.ar      1 <0>        -0.1345
     11 C9         -0.6019   -5.7698    2.7238 C.ar      1 <0>        -0.0630
     12 C10        -0.6477   -4.3990    2.5587 C.ar      1 <0>        -0.1387
     13 C11        -0.8098   -8.1002    1.8357 C.3       1 <0>         0.1470
     14 N2          0.5474   -8.5750    1.5550 N.pl3     1 <0>        -0.4677
     15 C12         1.0017   -8.9666    0.3138 C.ar      1 <0>         0.1318
     16 C13         0.3978   -9.0351   -0.9377 C.ar      1 <0>        -0.1203
     17 C14         1.1145   -9.4766   -2.0277 C.ar      1 <0>        -0.1049
     18 C15         2.4462   -9.8587   -1.8915 C.ar      1 <0>         0.0818
     19 C16         3.0638   -9.7986   -0.6585 C.ar      1 <0>        -0.0876
     20 C17         2.3471   -9.3513    0.4549 C.ar      1 <0>        -0.0421
     21 C18         2.6716   -9.1651    1.8629 C.2       1 <0>        -0.1777
     22 C19         1.5689   -8.6891    2.5113 C.2       1 <0>         0.0974
     23 C20         1.7122   -8.4321    3.9567 C.ar      1 <0>        -0.0757
     24 C21         0.7262   -7.9447    4.8460 C.ar      1 <0>        -0.0731
     25 C22         1.0101   -7.7572    6.1624 C.ar      1 <0>        -0.1419
     26 C23         2.2729   -8.0360    6.6797 C.ar      1 <0>         0.1392
     27 C24         3.2633   -8.5150    5.8369 C.ar      1 <0>        -0.0981
     28 C25         2.9804   -8.7070    4.5009 C.ar      1 <0>        -0.0860
     29 S1          3.9203   -9.2940    3.1154 S.3       1 <0>         0.1184
     30 O2          2.5317   -7.8396    7.9996 O.3       1 <0>        -0.4913
     31 O3          3.1410  -10.2930   -2.9770 O.3       1 <0>        -0.4929
     32 H1          1.8730    0.0089   -0.7963 H         1 <0>         0.1278
     33 H2          0.8897   -1.4416   -1.1082 H         1 <0>         0.1206
     34 H3          0.4851    0.0966   -1.9073 H         1 <0>         0.1252
     35 H4         -0.4425    1.9089   -0.6204 H         1 <0>         0.1235
     36 H5         -0.6804    1.7164    1.1331 H         1 <0>         0.1250
     37 H6          0.9658    1.8244    0.4649 H         1 <0>         0.1263
     38 H7         -2.0438   -0.1446    0.6463 H         1 <0>         0.1430
     39 H8         -1.7080   -0.1315   -1.1017 H         1 <0>         0.1502
     40 H9         -2.3506   -2.3958   -0.4202 H         1 <0>         0.1099
     41 H10        -0.6274   -2.3845   -0.8658 H         1 <0>         0.0873
     42 H11        -1.4852   -4.2849   -0.7148 H         1 <0>         0.1306
     43 H12        -1.3903   -6.7261   -0.4148 H         1 <0>         0.1317
     44 H13        -0.3549   -6.1892    3.6878 H         1 <0>         0.1373
     45 H14        -0.4366   -3.7468    3.3932 H         1 <0>         0.1364
     46 H15        -1.0780   -8.3522    2.8617 H         1 <0>         0.0995
     47 H16        -1.5104   -8.5763    1.1496 H         1 <0>         0.1034
     48 H17        -0.6351   -8.7419   -1.0546 H         1 <0>         0.1267
     49 H18         0.6393   -9.5273   -2.9962 H         1 <0>         0.1378
     50 H19         4.0968  -10.0960   -0.5545 H         1 <0>         0.1346
     51 H20        -0.2628   -7.7188    4.4753 H         1 <0>         0.1260
     52 H21         0.2400   -7.3836    6.8210 H         1 <0>         0.1376
     53 H22         4.2476   -8.7356    6.2228 H         1 <0>         0.1460
     54 H23         2.3528   -8.6110    8.5545 H         1 <0>         0.4001
     55 H24         3.5969   -9.5898   -3.4593 H         1 <0>         0.3892
     56 H25         0.3404   -0.4258    0.9781 H         1 <0>         0.4339
@<TRIPOS>BOND
     1    1    2 1
     2    1   32 1
     3    1   33 1
     4    1   34 1
     5    2    3 1
     6    2    4 1
     7    2   56 1
     8    3   35 1
     9    3   36 1
    10    3   37 1
    11    4    5 1
    12    4   38 1
    13    4   39 1
    14    5    6 1
    15    5   40 1
    16    5   41 1
    17    6    7 1
    18    7   12 ar
    19    7    8 ar
    20    8    9 ar
    21    8   42 1
    22    9   10 ar
    23    9   43 1
    24   10   11 ar
    25   10   13 1
    26   11   12 ar
    27   11   44 1
    28   12   45 1
    29   13   14 1
    30   13   46 1
    31   13   47 1
    32   14   22 1
    33   14   15 1
    34   15   20 ar
    35   15   16 ar
    36   16   17 ar
    37   16   48 1
    38   17   18 ar
    39   17   49 1
    40   18   19 ar
    41   18   31 1
    42   19   20 ar
    43   19   50 1
    44   20   21 1
    45   21   29 1
    46   21   22 2
    47   22   23 1
    48   23   28 ar
    49   23   24 ar
    50   24   25 ar
    51   24   51 1
    52   25   26 ar
    53   25   52 1
    54   26   27 ar
    55   26   30 1
    56   27   28 ar
    57   27   53 1
    58   28   29 1
    59   30   54 1
    60   31   55 1
