@<TRIPOS>MOLECULE
CHEMBL184974
   73    78     0     0     0
SMALL
USER_CHARGES

@<TRIPOS>ATOM
      1 C1          0.3115   -0.1272   -0.8807 C.ar      1 <0>        -0.0873
      2 C2          1.4368    0.6646   -1.0044 C.ar      1 <0>        -0.1389
      3 C3          1.4212    1.9687   -0.5314 C.ar      1 <0>         0.1158
      4 C4          0.2751    2.4743    0.0647 C.ar      1 <0>        -0.1461
      5 C5         -0.8475    1.6784    0.1860 C.ar      1 <0>        -0.0836
      6 C6         -0.8295    0.3790   -0.2861 C.ar      1 <0>        -0.0898
      7 C7         -2.0557   -0.4869   -0.1528 C.3       1 <0>        -0.0640
      8 H1         -2.9256    0.1320    0.0669 H         1 <0>         0.1382
      9 C8         -1.8497   -1.5194    0.9680 C.3       1 <0>         0.1497
     10 H2         -2.6846   -2.2201    0.9761 H         1 <0>         0.0962
     11 O1         -0.6405   -2.2245    0.7323 O.3       1 <0>        -0.3049
     12 C9         -0.4347   -2.9367   -0.4004 C.ar      1 <0>         0.1212
     13 C10         0.5013   -3.9672   -0.3529 C.ar      1 <0>        -0.1139
     14 C11         0.7726   -4.7232   -1.4746 C.ar      1 <0>        -0.1061
     15 C12         0.1139   -4.4642   -2.6676 C.ar      1 <0>         0.0985
     16 C13        -0.8237   -3.4458   -2.7253 C.ar      1 <0>        -0.0901
     17 C14        -1.1022   -2.6891   -1.5947 C.ar      1 <0>        -0.1477
     18 S1         -2.3289   -1.4182   -1.6930 S.3       1 <0>        -0.0841
     19 O2          0.3872   -5.2053   -3.7744 O.3       1 <0>        -0.4915
     20 C15        -1.7721   -0.8124    2.2966 C.ar      1 <0>        -0.1046
     21 C16        -0.5948   -0.2001    2.6848 C.ar      1 <0>        -0.0346
     22 C17        -0.5209    0.4483    3.9024 C.ar      1 <0>        -0.1416
     23 C18        -1.6295    0.4850    4.7357 C.ar      1 <0>         0.1247
     24 C19        -2.8098   -0.1298    4.3437 C.ar      1 <0>        -0.2036
     25 C20        -2.8800   -0.7724    3.1228 C.ar      1 <0>        -0.0588
     26 O3         -1.5592    1.1218    5.9343 O.3       1 <0>        -0.3266
     27 C21        -2.7392    1.1196    6.7403 C.3       1 <0>         0.0253
     28 C22        -2.4698    1.8785    8.0411 C.3       1 <0>        -0.0013
     29 N1         -2.1866    3.2874    7.7364 N.4       1 <0>        -0.3826
     30 C23        -1.7748    3.9785    8.9641 C.3       1 <0>        -0.0089
     31 C24        -1.3927    5.4241    8.6355 C.3       1 <0>        -0.1343
     32 C25        -2.5934    6.1334    8.0120 C.3       1 <0>        -0.0742
     33 C26        -2.2027    7.5666    7.6086 C.3       1 <0>        -0.1156
     34 C27        -3.4664    8.4059    7.9246 C.3       1 <0>        -0.1283
     35 C28        -3.9889    7.7604    9.2324 C.3       1 <0>        -0.1271
     36 C29        -3.7275    6.2513    9.0406 C.3       1 <0>        -0.1241
     37 C30        -3.0773    5.3625    6.7851 C.3       1 <0>        -0.1318
     38 C31        -3.3923    3.9193    7.1874 C.3       1 <0>        -0.0145
     39 O4          2.5270    2.7495   -0.6516 O.3       1 <0>        -0.4999
     40 H3          0.3217   -1.1411   -1.2527 H         1 <0>         0.1322
     41 H4          2.3279    0.2686   -1.4686 H         1 <0>         0.1315
     42 H5          0.2606    3.4891    0.4340 H         1 <0>         0.1293
     43 H6         -1.7400    2.0715    0.6501 H         1 <0>         0.1234
     44 H7          1.0201   -4.1761    0.5710 H         1 <0>         0.1413
     45 H8          1.5006   -5.5193   -1.4237 H         1 <0>         0.1429
     46 H9         -1.3389   -3.2397   -3.6518 H         1 <0>         0.1404
     47 H10        -0.1681   -5.9914   -3.8684 H         1 <0>         0.3946
     48 H11         0.2679   -0.2290    2.0357 H         1 <0>         0.1387
     49 H12         0.3991    0.9258    4.2055 H         1 <0>         0.1351
     50 H13        -3.6741   -0.1026    4.9907 H         1 <0>         0.1313
     51 H14        -3.7999   -1.2473    2.8153 H         1 <0>         0.1346
     52 H15        -3.5506    1.6049    6.1979 H         1 <0>         0.0867
     53 H16        -3.0199    0.0918    6.9707 H         1 <0>         0.1100
     54 H17        -3.3457    1.8154    8.6867 H         1 <0>         0.1489
     55 H18        -1.6119    1.4370    8.5484 H         1 <0>         0.1430
     56 H19        -2.5993    3.9740    9.6771 H         1 <0>         0.1297
     57 H20        -0.9166    3.4660    9.3988 H         1 <0>         0.1320
     58 H21        -1.0998    5.9400    9.5500 H         1 <0>         0.1140
     59 H22        -0.5608    5.4296    7.9313 H         1 <0>         0.0898
     60 H23        -1.3563    7.9128    8.2017 H         1 <0>         0.0770
     61 H24        -1.9694    7.6136    6.5449 H         1 <0>         0.0736
     62 H25        -3.2047    9.4514    8.0878 H         1 <0>         0.0744
     63 H26        -4.2026    8.3111    7.1264 H         1 <0>         0.0697
     64 H27        -3.4345    8.1373   10.0919 H         1 <0>         0.0709
     65 H28        -5.0555    7.9506    9.3521 H         1 <0>         0.0716
     66 H29        -4.6256    5.7611    8.6647 H         1 <0>         0.0691
     67 H30        -3.4232    5.8015    9.9857 H         1 <0>         0.0697
     68 H31        -3.9767    5.8347    6.3899 H         1 <0>         0.1130
     69 H32        -2.2985    5.3661    6.0226 H         1 <0>         0.0894
     70 H33        -3.7270    3.3632    6.3117 H         1 <0>         0.1278
     71 H34        -4.1792    3.9162    7.9416 H         1 <0>         0.1306
     72 H35         2.5624    3.2576   -1.4736 H         1 <0>         0.3954
     73 H36        -1.4418    3.3403    7.0577 H         1 <0>         0.4292
@<TRIPOS>BOND
     1    1    6 ar
     2    1    2 ar
     3    1   40 1
     4    2    3 ar
     5    2   41 1
     6    3    4 ar
     7    3   39 1
     8    4    5 ar
     9    4   42 1
    10    5    6 ar
    11    5   43 1
    12    6    7 1
    13    7    8 1
    14    7   18 1
    15    7    9 1
    16    9   10 1
    17    9   11 1
    18    9   20 1
    19   11   12 1
    20   12   17 ar
    21   12   13 ar
    22   13   14 ar
    23   13   44 1
    24   14   15 ar
    25   14   45 1
    26   15   16 ar
    27   15   19 1
    28   16   17 ar
    29   16   46 1
    30   17   18 1
    31   19   47 1
    32   20   25 ar
    33   20   21 ar
    34   21   22 ar
    35   21   48 1
    36   22   23 ar
    37   22   49 1
    38   23   24 ar
    39   23   26 1
    40   24   25 ar
    41   24   50 1
    42   25   51 1
    43   26   27 1
    44   27   28 1
    45   27   52 1
    46   27   53 1
    47   28   29 1
    48   28   54 1
    49   28   55 1
    50   29   38 1
    51   29   30 1
    52   29   73 1
    53   30   31 1
    54   30   56 1
    55   30   57 1
    56   31   32 1
    57   31   58 1
    58   31   59 1
    59   32   36 1
    60   32   33 1
    61   32   37 1
    62   33   34 1
    63   33   60 1
    64   33   61 1
    65   34   35 1
    66   34   62 1
    67   34   63 1
    68   35   36 1
    69   35   64 1
    70   35   65 1
    71   36   66 1
    72   36   67 1
    73   37   38 1
    74   37   68 1
    75   37   69 1
    76   38   70 1
    77   38   71 1
    78   39   72 1
