@<TRIPOS>MOLECULE
CHEMBL93826
   46    49     0     0     0
SMALL
USER_CHARGES

@<TRIPOS>ATOM
      1 C1         -0.0167    1.3781    0.0096 C.ar      1 <0>        -0.1188
      2 C2          1.1709    2.0855    0.0021 C.ar      1 <0>        -0.1205
      3 C3          2.3773    1.4107   -0.0130 C.ar      1 <0>        -0.1158
      4 C4          2.3960    0.0285   -0.0201 C.ar      1 <0>        -0.0805
      5 C5          1.2084   -0.6789   -0.0117 C.ar      1 <0>        -0.0970
      6 C6          0.0021   -0.0041    0.0020 C.ar      1 <0>        -0.1203
      7 C7          3.7112   -0.7071   -0.0376 C.3       1 <0>         0.0930
      8 N1          4.1530   -0.9531    1.3416 N.3       1 <0>        -0.5254
      9 C8          4.4884    0.3039    2.0180 C.3       1 <0>         0.0905
     10 C9          5.0320    0.0323    3.3964 C.ar      1 <0>        -0.0567
     11 C10         5.0542    1.0726    4.3126 C.ar      1 <0>        -0.1427
     12 C11         5.5489    0.8691    5.5902 C.ar      1 <0>         0.1069
     13 C12         6.0248   -0.3828    5.9530 C.ar      1 <0>        -0.1455
     14 C13         5.9998   -1.4160    5.0395 C.ar      1 <0>        -0.0920
     15 C14         5.5018   -1.2117    3.7610 C.ar      1 <0>        -0.0711
     16 C15         5.4853   -2.3751    2.8028 C.3       1 <0>         0.0015
     17 C16         5.3036   -1.8700    1.3712 C.3       1 <0>         0.0592
     18 C17         6.7872   -3.1271    2.9065 C.ar      1 <0>        -0.0858
     19 C18         7.9802   -2.4818    2.6382 C.ar      1 <0>        -0.0894
     20 C19         9.1749   -3.1690    2.7321 C.ar      1 <0>        -0.1427
     21 C20         9.1770   -4.5076    3.0964 C.ar      1 <0>         0.1047
     22 C21         7.9786   -5.1527    3.3655 C.ar      1 <0>        -0.1431
     23 C22         6.7870   -4.4597    3.2752 C.ar      1 <0>        -0.0958
     24 O1         10.3509   -5.1860    3.1890 O.3       1 <0>        -0.5003
     25 O2          5.5685    1.8918    6.4850 O.3       1 <0>        -0.4996
     26 H1         -0.9591    1.9053    0.0259 H         1 <0>         0.1211
     27 H2          1.1563    3.1654    0.0076 H         1 <0>         0.1213
     28 H3          3.3051    1.9634   -0.0196 H         1 <0>         0.1176
     29 H4          1.2231   -1.7588   -0.0176 H         1 <0>         0.1226
     30 H5         -0.9258   -0.5567    0.0082 H         1 <0>         0.1221
     31 H6          3.5884   -1.6586   -0.5549 H         1 <0>         0.0884
     32 H7          4.4573   -0.1052   -0.5563 H         1 <0>         0.0467
     33 H8          5.2378    0.8384    1.4341 H         1 <0>         0.0497
     34 H9          3.5927    0.9197    2.0989 H         1 <0>         0.0940
     35 H10         4.6841    2.0467    4.0286 H         1 <0>         0.1279
     36 H11         6.4138   -0.5475    6.9469 H         1 <0>         0.1281
     37 H12         6.3705   -2.3905    5.3215 H         1 <0>         0.1256
     38 H13         4.6623   -3.0426    3.0582 H         1 <0>         0.0998
     39 H14         5.1170   -2.7133    0.7063 H         1 <0>         0.0853
     40 H15         6.2018   -1.3408    1.0529 H         1 <0>         0.0451
     41 H16         7.9780   -1.4396    2.3547 H         1 <0>         0.1227
     42 H17        10.1065   -2.6646    2.5218 H         1 <0>         0.1281
     43 H18         7.9776   -6.1948    3.6492 H         1 <0>         0.1296
     44 H19         5.8542   -4.9603    3.4888 H         1 <0>         0.1288
     45 H20        10.7573   -5.1509    4.0658 H         1 <0>         0.3916
     46 H21         4.7664    1.9612    7.0207 H         1 <0>         0.3913
@<TRIPOS>BOND
     1    1    6 ar
     2    1    2 ar
     3    1   26 1
     4    2    3 ar
     5    2   27 1
     6    3    4 ar
     7    3   28 1
     8    4    5 ar
     9    4    7 1
    10    5    6 ar
    11    5   29 1
    12    6   30 1
    13    7    8 1
    14    7   31 1
    15    7   32 1
    16    8   17 1
    17    8    9 1
    18    9   10 1
    19    9   33 1
    20    9   34 1
    21   10   15 ar
    22   10   11 ar
    23   11   12 ar
    24   11   35 1
    25   12   13 ar
    26   12   25 1
    27   13   14 ar
    28   13   36 1
    29   14   15 ar
    30   14   37 1
    31   15   16 1
    32   16   17 1
    33   16   18 1
    34   16   38 1
    35   17   39 1
    36   17   40 1
    37   18   23 ar
    38   18   19 ar
    39   19   20 ar
    40   19   41 1
    41   20   21 ar
    42   20   42 1
    43   21   22 ar
    44   21   24 1
    45   22   23 ar
    46   22   43 1
    47   23   44 1
    48   24   45 1
    49   25   46 1
