@<TRIPOS>MOLECULE
CHEMBL315475
   51    54     0     0     0
SMALL
USER_CHARGES

@<TRIPOS>ATOM
      1 C1          0.2911    2.1997   -0.8178 C.3       1 <0>        -0.1446
      2 C2         -0.0019    0.7401   -0.4651 C.3       1 <0>        -0.0589
      3 C3          0.7050   -0.1644   -1.4415 C.2       1 <0>        -0.1298
      4 C4          0.1630   -0.7086   -2.6299 C.2       1 <0>        -0.1066
      5 C5          1.1648   -1.4720   -3.2034 C.2       1 <0>         0.0426
      6 O1          2.2515   -1.3963   -2.4105 O.3       1 <0>        -0.1542
      7 C6          1.9863   -0.6079   -1.3514 C.2       1 <0>         0.0278
      8 C7          2.9334   -0.2809   -0.2663 C.ar      1 <0>        -0.0259
      9 C8          2.5407   -0.4077    1.0680 C.ar      1 <0>        -0.0759
     10 C9          3.4278   -0.1015    2.0776 C.ar      1 <0>        -0.1427
     11 C10         4.7103    0.3331    1.7696 C.ar      1 <0>         0.1170
     12 C11         5.1049    0.4606    0.4443 C.ar      1 <0>        -0.1436
     13 C12         4.2262    0.1506   -0.5715 C.ar      1 <0>        -0.0786
     14 O2          5.5813    0.6348    2.7679 O.3       1 <0>        -0.4984
     15 C13         1.0610   -2.2345   -4.4608 C.ar      1 <0>        -0.0285
     16 C14         2.0736   -2.1456   -5.4205 C.ar      1 <0>        -0.0781
     17 C15         1.9722   -2.8606   -6.5941 C.ar      1 <0>        -0.1455
     18 C16         0.8660   -3.6683   -6.8245 C.ar      1 <0>         0.1188
     19 C17        -0.1429   -3.7596   -5.8743 C.ar      1 <0>        -0.1435
     20 C18        -0.0477   -3.0532   -4.6949 C.ar      1 <0>        -0.0656
     21 O3          0.7703   -4.3711   -7.9835 O.3       1 <0>        -0.4985
     22 C19        -1.2071   -0.5019   -3.1565 C.ar      1 <0>        -0.0524
     23 C20        -2.3063   -1.0038   -2.4607 C.ar      1 <0>        -0.0661
     24 C21        -3.5797   -0.8097   -2.9534 C.ar      1 <0>        -0.1497
     25 C22        -3.7678   -0.1160   -4.1411 C.ar      1 <0>         0.1309
     26 C23        -2.6757    0.3851   -4.8364 C.ar      1 <0>        -0.2047
     27 C24        -1.4000    0.1999   -4.3460 C.ar      1 <0>        -0.0581
     28 O4         -5.0239    0.0727   -4.6244 O.3       1 <0>        -0.3170
     29 C25        -5.1452    0.7952   -5.8513 C.3       1 <0>         0.0261
     30 H1          1.3653    2.3775   -0.7655 H         1 <0>         0.0542
     31 H2         -0.0629    2.4076   -1.8275 H         1 <0>         0.0551
     32 H3         -0.2202    2.8539   -0.1116 H         1 <0>         0.0589
     33 H4          0.3520    0.5321    0.5446 H         1 <0>         0.0742
     34 H5         -1.0761    0.5623   -0.5174 H         1 <0>         0.0758
     35 H6          1.5432   -0.7449    1.3084 H         1 <0>         0.1344
     36 H7          3.1249   -0.1992    3.1096 H         1 <0>         0.1361
     37 H8          6.1033    0.7989    0.2091 H         1 <0>         0.1344
     38 H9          4.5354    0.2458   -1.6019 H         1 <0>         0.1308
     39 H10         6.1179   -0.1142    3.0614 H         1 <0>         0.3942
     40 H11         2.9338   -1.5172   -5.2425 H         1 <0>         0.1312
     41 H12         2.7540   -2.7926   -7.3361 H         1 <0>         0.1345
     42 H13        -1.0013   -4.3887   -6.0582 H         1 <0>         0.1351
     43 H14        -0.8305   -3.1283   -3.9547 H         1 <0>         0.1321
     44 H15         1.1606   -5.2549   -7.9409 H         1 <0>         0.3942
     45 H16        -2.1606   -1.5442   -1.5370 H         1 <0>         0.1299
     46 H17        -4.4315   -1.1982   -2.4150 H         1 <0>         0.1329
     47 H18        -2.8255    0.9243   -5.7600 H         1 <0>         0.1293
     48 H19        -0.5512    0.5941   -4.8849 H         1 <0>         0.1226
     49 H20        -4.7257    1.7937   -5.7280 H         1 <0>         0.0562
     50 H21        -4.6047    0.2687   -6.6380 H         1 <0>         0.0564
     51 H22        -6.1976    0.8744   -6.1239 H         1 <0>         0.1014
@<TRIPOS>BOND
     1    1    2 1
     2    1   30 1
     3    1   31 1
     4    1   32 1
     5    2    3 1
     6    2   33 1
     7    2   34 1
     8    3    7 2
     9    3    4 1
    10    4    5 2
    11    4   22 1
    12    5    6 1
    13    5   15 1
    14    6    7 1
    15    7    8 1
    16    8   13 ar
    17    8    9 ar
    18    9   10 ar
    19    9   35 1
    20   10   11 ar
    21   10   36 1
    22   11   12 ar
    23   11   14 1
    24   12   13 ar
    25   12   37 1
    26   13   38 1
    27   14   39 1
    28   15   20 ar
    29   15   16 ar
    30   16   17 ar
    31   16   40 1
    32   17   18 ar
    33   17   41 1
    34   18   19 ar
    35   18   21 1
    36   19   20 ar
    37   19   42 1
    38   20   43 1
    39   21   44 1
    40   22   27 ar
    41   22   23 ar
    42   23   24 ar
    43   23   45 1
    44   24   25 ar
    45   24   46 1
    46   25   26 ar
    47   25   28 1
    48   26   27 ar
    49   26   47 1
    50   27   48 1
    51   28   29 1
    52   29   49 1
    53   29   50 1
    54   29   51 1
