@<TRIPOS>MOLECULE
CHEMBL1084265
   28    30     0     0     0
SMALL
USER_CHARGES

@<TRIPOS>ATOM
      1 C1         -0.0173    1.4248    0.0099 C.3       1 <0>         0.0206
      2 O1          0.0021   -0.0041    0.0020 O.3       1 <0>        -0.2862
      3 C2          0.6248   -0.6173    1.0397 C.ar      1 <0>         0.2172
      4 C3          1.2022    0.1339    2.0511 C.ar      1 <0>        -0.2450
      5 C4          1.8390   -0.4970    3.1053 C.ar      1 <0>        -0.0124
      6 C5          1.9139   -1.8740    3.1660 C.ar      1 <0>        -0.1835
      7 C6          1.3451   -2.6516    2.1640 C.ar      1 <0>         0.1948
      8 C7          0.6845   -2.0135    1.1012 C.ar      1 <0>        -0.2631
      9 C8          0.0571   -2.8490    0.0586 C.2       1 <0>         0.4407
     10 O2         -0.3308   -2.3823   -0.9971 O.2       1 <0>        -0.4298
     11 C9         -0.0707   -4.2864    0.3745 C.ar      1 <0>        -0.2311
     12 C10        -0.8706   -5.1244   -0.4027 C.ar      1 <0>        -0.0125
     13 C11        -0.9764   -6.4484   -0.0834 C.ar      1 <0>        -0.1736
     14 C12        -0.2893   -6.9612    1.0146 C.ar      1 <0>         0.1740
     15 C13         0.5106   -6.1412    1.7927 C.ar      1 <0>        -0.1736
     16 C14         0.6324   -4.7929    1.4806 C.ar      1 <0>         0.1720
     17 O3          1.4302   -3.9959    2.2239 O.3       1 <0>        -0.2235
     18 O4         -0.4045   -8.2775    1.3245 O.3       1 <0>        -0.4915
     19 H1          1.0053    1.8021    0.0021 H         1 <0>         0.0613
     20 H2         -0.5445    1.7859   -0.8732 H         1 <0>         0.1072
     21 H3         -0.5275    1.7763    0.9067 H         1 <0>         0.0608
     22 H4          1.1556    1.2123    2.0163 H         1 <0>         0.1424
     23 H5          2.2835    0.0958    3.8910 H         1 <0>         0.1446
     24 H6          2.4169   -2.3492    3.9952 H         1 <0>         0.1458
     25 H7         -1.4045   -4.7278   -1.2536 H         1 <0>         0.1475
     26 H8         -1.5949   -7.0993   -0.6836 H         1 <0>         0.1440
     27 H9          1.0387   -6.5493    2.6418 H         1 <0>         0.1507
     28 H10         0.2538   -8.8416    0.8960 H         1 <0>         0.4021
@<TRIPOS>BOND
     1    1    2 1
     2    1   19 1
     3    1   20 1
     4    1   21 1
     5    2    3 1
     6    3    8 ar
     7    3    4 ar
     8    4    5 ar
     9    4   22 1
    10    5    6 ar
    11    5   23 1
    12    6    7 ar
    13    6   24 1
    14    7   17 1
    15    7    8 ar
    16    8    9 1
    17    9   10 2
    18    9   11 1
    19   11   16 ar
    20   11   12 ar
    21   12   13 ar
    22   12   25 1
    23   13   14 ar
    24   13   26 1
    25   14   15 ar
    26   14   18 1
    27   15   16 ar
    28   15   27 1
    29   16   17 1
    30   18   28 1
