@<TRIPOS>MOLECULE
CHEMBL31089
   68    72     0     0     0
SMALL
USER_CHARGES

@<TRIPOS>ATOM
      1 C1         -1.0367    1.3253    0.1879 C.3       1 <0>        -0.1353
      2 C2         -0.8279   -0.1662    0.1448 C.ar      1 <0>        -0.0477
      3 C3         -0.8822   -0.7582   -1.0923 C.ar      1 <0>        -0.1400
      4 C4         -0.6539   -2.1205   -1.2522 C.ar      1 <0>         0.1197
      5 C5         -0.3205   -2.8914   -0.1613 C.ar      1 <0>        -0.1382
      6 C6         -0.2558   -2.3030    1.1099 C.ar      1 <0>        -0.0346
      7 C7         -0.6245   -0.9409    1.2829 C.ar      1 <0>        -0.0366
      8 C8         -0.8217   -0.4637    2.6555 C.ar      1 <0>        -0.0203
      9 C9         -1.6129    0.6352    2.9896 C.ar      1 <0>        -0.1043
     10 C10        -1.6218    1.1250    4.2656 C.ar      1 <0>        -0.1074
     11 C11        -0.9007    0.4960    5.2702 C.ar      1 <0>        -0.1111
     12 C12        -0.2336   -0.6669    5.0104 C.ar      1 <0>        -0.1004
     13 C13        -0.2472   -1.2039    3.7213 C.ar      1 <0>        -0.0372
     14 C14         0.2525   -2.5561    3.4598 C.ar      1 <0>        -0.0384
     15 C15         0.1981   -3.0711    2.2022 C.ar      1 <0>        -0.0850
     16 C16         0.8175   -3.3788    4.5541 C.ar      1 <0>        -0.0587
     17 C17         1.7885   -2.8439    5.4011 C.ar      1 <0>        -0.0675
     18 C18         2.3124   -3.6126    6.4186 C.ar      1 <0>        -0.1373
     19 C19         1.8747   -4.9177    6.6010 C.ar      1 <0>         0.1143
     20 C20         0.9087   -5.4535    5.7595 C.ar      1 <0>        -0.1979
     21 C21         0.3759   -4.6884    4.7438 C.ar      1 <0>        -0.0648
     22 O1          2.3931   -5.6724    7.6048 O.3       1 <0>        -0.3273
     23 C22         1.8979   -7.0065    7.7356 C.3       1 <0>         0.0251
     24 C23         2.5936   -7.6958    8.9111 C.3       1 <0>        -0.0009
     25 N1          2.2312   -7.0156   10.1617 N.4       1 <0>        -0.3842
     26 C24         3.0213   -7.5723   11.2664 C.3       1 <0>        -0.0070
     27 C25         2.7067   -6.8127   12.5569 C.3       1 <0>        -0.1467
     28 C26         1.2149   -6.9513   12.8737 C.3       1 <0>        -0.1390
     29 C27         0.4003   -6.4360   11.6837 C.3       1 <0>        -0.1455
     30 C28         0.8003   -7.2096   10.4255 C.3       1 <0>        -0.0133
     31 C29        -0.8507    1.0963    6.6502 C.3       1 <0>         0.1441
     32 C30         0.1759    2.2305    6.6761 C.3       1 <0>        -0.1827
     33 O2         -2.1388    1.6119    6.9923 O.3       1 <0>        -0.5557
     34 O3         -0.7577   -2.6904   -2.4807 O.3       1 <0>        -0.4958
     35 H1         -0.0695    1.8267    0.2211 H         1 <0>         0.0778
     36 H2         -1.5798    1.6420   -0.7025 H         1 <0>         0.0740
     37 H3         -1.6119    1.5861    1.0763 H         1 <0>         0.0822
     38 H4         -1.1071   -0.1455   -1.9539 H         1 <0>         0.1345
     39 H5         -0.1095   -3.9439   -0.2840 H         1 <0>         0.1357
     40 H6         -2.2940    1.0776    2.2779 H         1 <0>         0.1394
     41 H7         -2.1970    2.0107    4.4919 H         1 <0>         0.1262
     42 H8          0.3052   -1.1489    5.8130 H         1 <0>         0.1290
     43 H9          0.5092   -4.0928    2.0364 H         1 <0>         0.1293
     44 H10         2.1297   -1.8291    5.2596 H         1 <0>         0.1388
     45 H11         3.0644   -3.1993    7.0745 H         1 <0>         0.1361
     46 H12         0.5707   -6.4690    5.9040 H         1 <0>         0.1300
     47 H13        -0.3789   -5.1041    4.0927 H         1 <0>         0.1337
     48 H14         0.8231   -6.9792    7.9148 H         1 <0>         0.0866
     49 H15         2.0994   -7.5604    6.8187 H         1 <0>         0.1097
     50 H16         2.2781   -8.7380    8.9596 H         1 <0>         0.1490
     51 H17         3.6737   -7.6493    8.7720 H         1 <0>         0.1427
     52 H18         2.7726   -8.6257   11.3956 H         1 <0>         0.1291
     53 H19         4.0827   -7.4758   11.0380 H         1 <0>         0.1310
     54 H20         3.2930   -7.2286   13.3763 H         1 <0>         0.1131
     55 H21         2.9552   -5.7591   12.4289 H         1 <0>         0.0880
     56 H22         0.9761   -7.9998   13.0522 H         1 <0>         0.0821
     57 H23         0.9746   -6.3654   13.7609 H         1 <0>         0.0948
     58 H24        -0.6620   -6.5828   11.8789 H         1 <0>         0.1125
     59 H25         0.6009   -5.3747   11.5376 H         1 <0>         0.0880
     60 H26         0.2221   -6.8454    9.5764 H         1 <0>         0.1274
     61 H27         0.5991   -8.2707   10.5726 H         1 <0>         0.1303
     62 H28        -0.5634    0.3296    7.3697 H         1 <0>         0.1042
     63 H29        -0.1114    2.9972    5.9566 H         1 <0>         0.0631
     64 H30         0.2121    2.6650    7.6751 H         1 <0>         0.0704
     65 H31         1.1584    1.8372    6.4152 H         1 <0>         0.0678
     66 H32        -2.4588    2.3002    6.3932 H         1 <0>         0.3769
     67 H33         0.0684   -2.6948   -2.9833 H         1 <0>         0.3950
     68 H34         2.4255   -6.0293   10.0755 H         1 <0>         0.4293
@<TRIPOS>BOND
     1    1    2 1
     2    1   35 1
     3    1   36 1
     4    1   37 1
     5    2    7 ar
     6    2    3 ar
     7    3    4 ar
     8    3   38 1
     9    4    5 ar
    10    4   34 1
    11    5    6 ar
    12    5   39 1
    13    6   15 ar
    14    6    7 ar
    15    7    8 ar
    16    8   13 ar
    17    8    9 ar
    18    9   10 ar
    19    9   40 1
    20   10   11 ar
    21   10   41 1
    22   11   12 ar
    23   11   31 1
    24   12   13 ar
    25   12   42 1
    26   13   14 ar
    27   14   15 ar
    28   14   16 1
    29   15   43 1
    30   16   21 ar
    31   16   17 ar
    32   17   18 ar
    33   17   44 1
    34   18   19 ar
    35   18   45 1
    36   19   20 ar
    37   19   22 1
    38   20   21 ar
    39   20   46 1
    40   21   47 1
    41   22   23 1
    42   23   24 1
    43   23   48 1
    44   23   49 1
    45   24   25 1
    46   24   50 1
    47   24   51 1
    48   25   30 1
    49   25   26 1
    50   25   68 1
    51   26   27 1
    52   26   52 1
    53   26   53 1
    54   27   28 1
    55   27   54 1
    56   27   55 1
    57   28   29 1
    58   28   56 1
    59   28   57 1
    60   29   30 1
    61   29   58 1
    62   29   59 1
    63   30   60 1
    64   30   61 1
    65   31   32 1
    66   31   33 1
    67   31   62 1
    68   32   63 1
    69   32   64 1
    70   32   65 1
    71   33   66 1
    72   34   67 1
