@<TRIPOS>MOLECULE
CHEMBL335465
   36    38     0     0     0
SMALL
USER_CHARGES

@<TRIPOS>ATOM
      1 C1         -0.0167    1.3792    0.0096 C.ar      1 <0>        -0.1138
      2 C2          1.1685    2.0927    0.0021 C.ar      1 <0>        -0.1203
      3 C3          2.3774    1.4276   -0.0134 C.ar      1 <0>        -0.1063
      4 C4          2.4028    0.0333   -0.0211 C.ar      1 <0>        -0.0529
      5 C5          1.2047   -0.6805   -0.0130 C.ar      1 <0>        -0.0900
      6 C6          0.0021   -0.0041    0.0020 C.ar      1 <0>        -0.1185
      7 C7          3.6973   -0.6869   -0.0382 C.ar      1 <0>        -0.0149
      8 C8          4.6767   -0.3394   -0.9672 C.ar      1 <0>        -0.1096
      9 C9          5.8805   -1.0070   -0.9854 C.ar      1 <0>        -0.0751
     10 C10         6.1279   -2.0374   -0.0729 C.ar      1 <0>        -0.0576
     11 C11         5.1547   -2.3928    0.8606 C.ar      1 <0>        -0.0710
     12 C12         3.9413   -1.7169    0.8856 C.ar      1 <0>        -0.0385
     13 C13         2.9048   -2.0857    1.8795 C.ar      1 <0>        -0.0483
     14 C14         2.2918   -1.0989    2.6500 C.ar      1 <0>        -0.0913
     15 C15         1.3273   -1.4480    3.5732 C.ar      1 <0>        -0.1180
     16 C16         0.9685   -2.7742    3.7348 C.ar      1 <0>        -0.1148
     17 C17         1.5734   -3.7577    2.9729 C.ar      1 <0>        -0.1198
     18 C18         2.5354   -3.4199    2.0429 C.ar      1 <0>        -0.1081
     19 C19         7.4199   -2.7498   -0.0982 C.2       1 <0>         0.1456
     20 N1          8.3231   -2.4209   -0.9642 N.2       1 <0>        -0.3313
     21 O1          9.5629   -3.1045   -0.9885 O.3       1 <0>        -0.4089
     22 H1         -0.9604    1.9042    0.0260 H         1 <0>         0.1221
     23 H2          1.1476    3.1725    0.0081 H         1 <0>         0.1240
     24 H3          3.3020    1.9857   -0.0199 H         1 <0>         0.1239
     25 H4          1.2181   -1.7604   -0.0192 H         1 <0>         0.1216
     26 H5         -0.9264   -0.5557    0.0079 H         1 <0>         0.1226
     27 H6          4.4905    0.4551   -1.6746 H         1 <0>         0.1324
     28 H7          6.6363   -0.7342   -1.7070 H         1 <0>         0.1362
     29 H8          5.3456   -3.1886    1.5654 H         1 <0>         0.1347
     30 H9          2.5714   -0.0633    2.5250 H         1 <0>         0.1212
     31 H10         0.8519   -0.6844    4.1710 H         1 <0>         0.1224
     32 H11         0.2134   -3.0428    4.4587 H         1 <0>         0.1218
     33 H12         1.2893   -4.7915    3.1033 H         1 <0>         0.1238
     34 H13         3.0038   -4.1880    1.4455 H         1 <0>         0.1237
     35 H14         7.6116   -3.5457    0.6062 H         1 <0>         0.1254
     36 H15        10.1728   -2.7889   -1.6693 H         1 <0>         0.4078
@<TRIPOS>BOND
     1    1    6 ar
     2    1    2 ar
     3    1   22 1
     4    2    3 ar
     5    2   23 1
     6    3    4 ar
     7    3   24 1
     8    4    5 ar
     9    4    7 1
    10    5    6 ar
    11    5   25 1
    12    6   26 1
    13    7   12 ar
    14    7    8 ar
    15    8    9 ar
    16    8   27 1
    17    9   10 ar
    18    9   28 1
    19   10   11 ar
    20   10   19 1
    21   11   12 ar
    22   11   29 1
    23   12   13 1
    24   13   18 ar
    25   13   14 ar
    26   14   15 ar
    27   14   30 1
    28   15   16 ar
    29   15   31 1
    30   16   17 ar
    31   16   32 1
    32   17   18 ar
    33   17   33 1
    34   18   34 1
    35   19   20 2
    36   19   35 1
    37   20   21 1
    38   21   36 1
