@<TRIPOS>MOLECULE
CHEMBL378581
   32    34     0     0     0
SMALL
USER_CHARGES

@<TRIPOS>ATOM
      1 C1         -0.0167    1.3769    0.0096 C.ar      1 <0>        -0.1074
      2 C2          1.1703    2.0866    0.0021 C.ar      1 <0>        -0.0958
      3 C3          2.3799    1.4169   -0.0135 C.ar      1 <0>        -0.1050
      4 C4          2.4062    0.0351   -0.0216 C.ar      1 <0>        -0.0209
      5 C5          1.2148   -0.6807   -0.0136 C.ar      1 <0>         0.1498
      6 C6          0.0021   -0.0041    0.0020 C.ar      1 <0>        -0.1013
      7 N1          1.2372   -2.0780   -0.0222 N.pl3     1 <0>        -0.9521
      8 C7          1.1345   -2.8602   -1.2694 C.3       1 <0>         0.1141
      9 C8          2.4380   -3.6072   -1.4977 C.3       1 <0>        -0.1285
     10 C9          2.8251   -4.5159   -0.3685 C.ar      1 <0>         0.0330
     11 C10         3.6179   -5.6173   -0.6777 C.ar      1 <0>        -0.1663
     12 C11         4.0345   -6.4880    0.3127 C.ar      1 <0>         0.1659
     13 C12         3.6644   -6.2665    1.6316 C.ar      1 <0>        -0.1601
     14 C13         2.8710   -5.1800    1.9393 C.ar      1 <0>        -0.0048
     15 C14         2.4462   -4.3187    0.9423 C.ar      1 <0>        -0.6638
     16 S1          1.3887   -2.9746    1.3752 S.o2      1 <0>         2.6803
     17 O1          2.0988   -2.1719    2.3083 O.2       1 <0>        -0.9365
     18 O2          0.1103   -3.5294    1.6529 O.2       1 <0>        -0.9443
     19 O3          4.8057   -7.5607   -0.0058 O.3       1 <0>        -0.4965
     20 Cl1         3.9251   -0.8053   -0.0422 Cl        1 <0>        -0.0554
     21 H1         -0.9595    1.9034    0.0259 H         1 <0>         0.1381
     22 H2          1.1524    3.1664    0.0080 H         1 <0>         0.1387
     23 H3          3.3050    1.9742   -0.0197 H         1 <0>         0.1407
     24 H4         -0.9255   -0.5573    0.0082 H         1 <0>         0.1411
     25 H5          0.3153   -3.5743   -1.1853 H         1 <0>         0.0919
     26 H6          0.9485   -2.1878   -2.1069 H         1 <0>         0.1093
     27 H7          2.3427   -4.2026   -2.4057 H         1 <0>         0.1095
     28 H8          3.2347   -2.8783   -1.6460 H         1 <0>         0.1037
     29 H9          3.9113   -5.7936   -1.7021 H         1 <0>         0.1397
     30 H10         3.9946   -6.9381    2.4103 H         1 <0>         0.1439
     31 H11         2.5799   -5.0006    2.9637 H         1 <0>         0.1383
     32 H12         5.7561   -7.3845    0.0240 H         1 <0>         0.4009
@<TRIPOS>BOND
     1    1    6 ar
     2    1    2 ar
     3    1   21 1
     4    2    3 ar
     5    2   22 1
     6    3    4 ar
     7    3   23 1
     8    4    5 ar
     9    4   20 1
    10    5    6 ar
    11    5    7 1
    12    6   24 1
    13    7   16 1
    14    7    8 1
    15    8    9 1
    16    8   25 1
    17    8   26 1
    18    9   10 1
    19    9   27 1
    20    9   28 1
    21   10   15 ar
    22   10   11 ar
    23   11   12 ar
    24   11   29 1
    25   12   13 ar
    26   12   19 1
    27   13   14 ar
    28   13   30 1
    29   14   15 ar
    30   14   31 1
    31   15   16 1
    32   16   17 2
    33   16   18 2
    34   19   32 1
