@<TRIPOS>MOLECULE
CHEMBL296526
   67    72     0     0     0
SMALL
USER_CHARGES

@<TRIPOS>ATOM
      1 C1         -2.5507   -2.5372    5.8750 C.3       1 <0>         0.0240
      2 O1         -1.9709   -2.7464    4.5858 O.3       1 <0>        -0.3066
      3 C2         -2.7994   -2.6454    3.5128 C.ar      1 <0>         0.1593
      4 C3         -4.1469   -2.3447    3.6910 C.ar      1 <0>        -0.1950
      5 C4         -4.9976   -2.2388    2.6224 C.ar      1 <0>        -0.0358
      6 C5         -4.5295   -2.4330    1.3032 C.ar      1 <0>        -0.1039
      7 C6         -3.1633   -2.7358    1.1518 C.ar      1 <0>        -0.0779
      8 C7         -2.3099   -2.8353    2.2306 C.ar      1 <0>        -0.1114
      9 S1         -2.9409   -2.9091   -0.6001 S.3       1 <0>         0.1067
     10 C8         -4.6101   -2.5909   -1.1361 C.2       1 <0>        -0.0602
     11 C9         -5.2899   -2.3603    0.0530 C.2       1 <0>        -0.1530
     12 C10        -6.7205   -2.0548    0.0569 C.2       1 <0>         0.4626
     13 O2         -7.0961   -0.8969    0.0130 O.2       1 <0>        -0.4294
     14 C11        -7.7094   -3.1504    0.1141 C.ar      1 <0>        -0.1822
     15 C12        -7.2836   -4.4702    0.2855 C.ar      1 <0>        -0.0196
     16 C13        -8.2088   -5.4889    0.3383 C.ar      1 <0>        -0.1530
     17 C14        -9.5646   -5.2056    0.2212 C.ar      1 <0>         0.1470
     18 C15        -9.9921   -3.8942    0.0501 C.ar      1 <0>        -0.2160
     19 C16        -9.0736   -2.8692    0.0025 C.ar      1 <0>        -0.0167
     20 O3        -10.4733   -6.2124    0.2737 O.3       1 <0>        -0.3244
     21 C17       -11.8500   -5.8510    0.1467 C.3       1 <0>         0.0229
     22 C18       -12.7173   -7.1087    0.2293 C.3       1 <0>        -0.0009
     23 N1        -12.5651   -7.7222    1.5554 N.4       1 <0>        -0.3845
     24 C19       -13.2790   -9.0044    1.5845 C.3       1 <0>        -0.0072
     25 C20       -13.0566   -9.6858    2.9364 C.3       1 <0>        -0.1467
     26 C21       -13.5857   -8.7796    4.0518 C.3       1 <0>        -0.1391
     27 C22       -12.8874   -7.4195    3.9655 C.3       1 <0>        -0.1454
     28 C23       -13.1161   -6.8221    2.5755 C.3       1 <0>        -0.0135
     29 C24        -5.1416   -2.5753   -2.5111 C.ar      1 <0>        -0.0222
     30 C25        -5.9354   -1.5091   -2.9437 C.ar      1 <0>        -0.0784
     31 C26        -6.4306   -1.4965   -4.2296 C.ar      1 <0>        -0.0968
     32 C27        -6.1442   -2.5400   -5.0992 C.ar      1 <0>         0.0519
     33 C28        -5.3526   -3.6074   -4.6740 C.ar      1 <0>         0.0353
     34 C29        -4.8484   -3.6238   -3.3878 C.ar      1 <0>        -0.0743
     35 O4         -5.2226   -4.4915   -5.7063 O.3       1 <0>        -0.3035
     36 C30        -6.2745   -4.1589   -6.6315 C.3       1 <0>         0.2125
     37 O5         -6.5075   -2.7578   -6.3962 O.3       1 <0>        -0.3028
     38 H1         -1.7827   -2.6463    6.6408 H         1 <0>         0.1073
     39 H2         -2.9734   -1.5337    5.9248 H         1 <0>         0.0602
     40 H3         -3.3381   -3.2719    6.0429 H         1 <0>         0.0585
     41 H4         -4.5286   -2.1925    4.6898 H         1 <0>         0.1380
     42 H5         -6.0384   -2.0043    2.7902 H         1 <0>         0.1257
     43 H6         -1.2658   -3.0647    2.0770 H         1 <0>         0.1455
     44 H7         -6.2304   -4.6911    0.3762 H         1 <0>         0.1429
     45 H8         -7.8805   -6.5092    0.4704 H         1 <0>         0.1407
     46 H9        -11.0464   -3.6782   -0.0412 H         1 <0>         0.1352
     47 H10        -9.4069   -1.8499   -0.1253 H         1 <0>         0.1436
     48 H11       -12.1222   -5.1684    0.9518 H         1 <0>         0.0894
     49 H12       -12.0101   -5.3617   -0.8141 H         1 <0>         0.1123
     50 H13       -13.7618   -6.8409    0.0706 H         1 <0>         0.1503
     51 H14       -12.4034   -7.8174   -0.5371 H         1 <0>         0.1434
     52 H15       -14.3448   -8.8297    1.4372 H         1 <0>         0.1295
     53 H16       -12.9035   -9.6470    0.7881 H         1 <0>         0.1313
     54 H17       -13.5889  -10.6367    2.9567 H         1 <0>         0.1134
     55 H18       -11.9910   -9.8612    3.0847 H         1 <0>         0.0881
     56 H19       -14.6609   -8.6455    3.9332 H         1 <0>         0.0823
     57 H20       -13.3787   -9.2349    5.0203 H         1 <0>         0.0949
     58 H21       -13.2987   -6.7505    4.7214 H         1 <0>         0.1125
     59 H22       -11.8183   -7.5478    4.1352 H         1 <0>         0.0879
     60 H23       -12.6203   -5.8535    2.5107 H         1 <0>         0.1272
     61 H24       -14.1853   -6.6939    2.4070 H         1 <0>         0.1307
     62 H25        -6.1608   -0.6956   -2.2701 H         1 <0>         0.1458
     63 H26        -7.0440   -0.6721   -4.5619 H         1 <0>         0.1450
     64 H27        -4.2318   -4.4473   -3.0590 H         1 <0>         0.1431
     65 H28        -5.9485   -4.3258   -7.6581 H         1 <0>         0.1376
     66 H29        -7.1722   -4.7380   -6.4148 H         1 <0>         0.0868
     67 H30       -11.5860   -7.8804    1.7413 H         1 <0>         0.4292
@<TRIPOS>BOND
     1    1    2 1
     2    1   38 1
     3    1   39 1
     4    1   40 1
     5    2    3 1
     6    3    8 ar
     7    3    4 ar
     8    4    5 ar
     9    4   41 1
    10    5    6 ar
    11    5   42 1
    12    6   11 1
    13    6    7 ar
    14    7    8 ar
    15    7    9 1
    16    8   43 1
    17    9   10 1
    18   10   11 2
    19   10   29 1
    20   11   12 1
    21   12   13 2
    22   12   14 1
    23   14   19 ar
    24   14   15 ar
    25   15   16 ar
    26   15   44 1
    27   16   17 ar
    28   16   45 1
    29   17   18 ar
    30   17   20 1
    31   18   19 ar
    32   18   46 1
    33   19   47 1
    34   20   21 1
    35   21   22 1
    36   21   48 1
    37   21   49 1
    38   22   23 1
    39   22   50 1
    40   22   51 1
    41   23   28 1
    42   23   24 1
    43   23   67 1
    44   24   25 1
    45   24   52 1
    46   24   53 1
    47   25   26 1
    48   25   54 1
    49   25   55 1
    50   26   27 1
    51   26   56 1
    52   26   57 1
    53   27   28 1
    54   27   58 1
    55   27   59 1
    56   28   60 1
    57   28   61 1
    58   29   34 ar
    59   29   30 ar
    60   30   31 ar
    61   30   62 1
    62   31   32 ar
    63   31   63 1
    64   32   37 1
    65   32   33 ar
    66   33   34 ar
    67   33   35 1
    68   34   64 1
    69   35   36 1
    70   36   37 1
    71   36   65 1
    72   36   66 1
