@<TRIPOS>MOLECULE
CHEMBL361751
   63    67     0     0     0
SMALL
USER_CHARGES

@<TRIPOS>ATOM
      1 C1          1.1631   -0.6117   -0.4390 C.ar      1 <0>        -0.0882
      2 C2          2.3518    0.0921   -0.4484 C.ar      1 <0>        -0.1397
      3 C3          2.3800    1.4096   -0.0147 C.ar      1 <0>         0.1152
      4 C4          1.2137    2.0170    0.4273 C.ar      1 <0>        -0.1451
      5 C5          0.0275    1.3089    0.4346 C.ar      1 <0>        -0.0824
      6 C6          0.0021   -0.0041    0.0020 C.ar      1 <0>        -0.0895
      7 C7         -1.2934   -0.7740    0.0107 C.3       1 <0>        -0.0632
      8 H1         -2.1334   -0.0869    0.1120 H         1 <0>         0.1384
      9 C8         -1.2969   -1.7821    1.1721 C.3       1 <0>         0.1520
     10 H2         -2.1779   -2.4197    1.0986 H         1 <0>         0.0949
     11 O1         -0.1255   -2.5802    1.0967 O.3       1 <0>        -0.3045
     12 C9          0.1551   -3.3416    0.0132 C.ar      1 <0>         0.1225
     13 C10         0.9986   -4.4351    0.1946 C.ar      1 <0>        -0.1149
     14 C11         1.3394   -5.2447   -0.8692 C.ar      1 <0>        -0.1065
     15 C12         0.8443   -4.9772   -2.1372 C.ar      1 <0>         0.0968
     16 C13        -0.0005   -3.8960   -2.3286 C.ar      1 <0>        -0.0900
     17 C14        -0.3494   -3.0850   -1.2568 C.ar      1 <0>        -0.1474
     18 S1         -1.4568   -1.7323   -1.5285 S.3       1 <0>        -0.0868
     19 O2          1.1866   -5.7716   -3.1864 O.3       1 <0>        -0.4917
     20 C15        -1.3198   -1.0400    2.4835 C.ar      1 <0>        -0.1129
     21 C16        -0.1522   -0.5024    2.9927 C.ar      1 <0>        -0.0343
     22 C17        -0.1704    0.1779    4.1949 C.ar      1 <0>        -0.1457
     23 C18        -1.3617    0.3218    4.8912 C.ar      1 <0>         0.1325
     24 C19        -2.5320   -0.2182    4.3779 C.ar      1 <0>        -0.2081
     25 C20        -2.5094   -0.8931    3.1727 C.ar      1 <0>        -0.0596
     26 O3         -1.3822    0.9902    6.0743 O.3       1 <0>        -0.3118
     27 C21        -2.6441    1.0995    6.7359 C.3       1 <0>         0.0624
     28 C22        -2.4698    1.8785    8.0411 C.3       1 <0>        -0.1499
     29 C23        -3.8208    1.9956    8.7495 C.3       1 <0>        -0.0012
     30 N1         -3.6535    2.7436   10.0027 N.4       1 <0>        -0.3936
     31 C24        -3.3333    4.1646    9.7122 C.3       1 <0>        -0.0090
     32 C25        -3.7423    4.8940   11.0165 C.3       1 <0>        -0.1458
     33 C26        -5.0169    4.1350   11.4518 C.3       1 <0>        -0.1456
     34 C27        -4.9245    2.7631   10.7586 C.3       1 <0>        -0.0082
     35 O4          3.5482    2.1039   -0.0225 O.3       1 <0>        -0.4995
     36 H3          1.1398   -1.6359   -0.7807 H         1 <0>         0.1316
     37 H4          3.2585   -0.3831   -0.7926 H         1 <0>         0.1308
     38 H5          1.2331    3.0424    0.7657 H         1 <0>         0.1302
     39 H6         -0.8807    1.7813    0.7787 H         1 <0>         0.1244
     40 H7          1.3899   -4.6512    1.1778 H         1 <0>         0.1411
     41 H8          1.9942   -6.0894   -0.7144 H         1 <0>         0.1423
     42 H9         -0.3883   -3.6831   -3.3139 H         1 <0>         0.1400
     43 H10         0.5878   -6.5179   -3.3264 H         1 <0>         0.3938
     44 H11         0.7750   -0.6147    2.4504 H         1 <0>         0.1368
     45 H12         0.7420    0.5970    4.5927 H         1 <0>         0.1347
     46 H13        -3.4607   -0.1075    4.9180 H         1 <0>         0.1292
     47 H14        -3.4210   -1.3098    2.7705 H         1 <0>         0.1319
     48 H15        -3.3483    1.6246    6.0906 H         1 <0>         0.0726
     49 H16        -3.0265    0.1028    6.9560 H         1 <0>         0.0731
     50 H17        -1.7655    1.3535    8.6864 H         1 <0>         0.0989
     51 H18        -2.0873    2.8753    7.8210 H         1 <0>         0.0984
     52 H19        -4.5251    2.5207    8.1042 H         1 <0>         0.1330
     53 H20        -4.2032    0.9989    8.9696 H         1 <0>         0.1337
     54 H21        -2.2673    4.2874    9.5208 H         1 <0>         0.1364
     55 H22        -3.9209    4.5266    8.8685 H         1 <0>         0.1344
     56 H23        -2.9615    4.8014   11.7713 H         1 <0>         0.0987
     57 H24        -3.9663    5.9421   10.8183 H         1 <0>         0.1173
     58 H25        -5.0323    4.0115   12.5347 H         1 <0>         0.1058
     59 H26        -5.9072    4.6682   11.1184 H         1 <0>         0.1042
     60 H27        -5.7646    2.6346   10.0760 H         1 <0>         0.1311
     61 H28        -4.9247    1.9690   11.5053 H         1 <0>         0.1332
     62 H29         3.7178    2.5792   -0.8474 H         1 <0>         0.3946
     63 H30        -2.9228    2.3285   10.5612 H         1 <0>         0.4284
@<TRIPOS>BOND
     1    1    6 ar
     2    1    2 ar
     3    1   36 1
     4    2    3 ar
     5    2   37 1
     6    3    4 ar
     7    3   35 1
     8    4    5 ar
     9    4   38 1
    10    5    6 ar
    11    5   39 1
    12    6    7 1
    13    7    8 1
    14    7   18 1
    15    7    9 1
    16    9   10 1
    17    9   11 1
    18    9   20 1
    19   11   12 1
    20   12   17 ar
    21   12   13 ar
    22   13   14 ar
    23   13   40 1
    24   14   15 ar
    25   14   41 1
    26   15   16 ar
    27   15   19 1
    28   16   17 ar
    29   16   42 1
    30   17   18 1
    31   19   43 1
    32   20   25 ar
    33   20   21 ar
    34   21   22 ar
    35   21   44 1
    36   22   23 ar
    37   22   45 1
    38   23   24 ar
    39   23   26 1
    40   24   25 ar
    41   24   46 1
    42   25   47 1
    43   26   27 1
    44   27   28 1
    45   27   48 1
    46   27   49 1
    47   28   29 1
    48   28   50 1
    49   28   51 1
    50   29   30 1
    51   29   52 1
    52   29   53 1
    53   30   34 1
    54   30   31 1
    55   30   63 1
    56   31   32 1
    57   31   54 1
    58   31   55 1
    59   32   33 1
    60   32   56 1
    61   32   57 1
    62   33   34 1
    63   33   58 1
    64   33   59 1
    65   34   60 1
    66   34   61 1
    67   35   62 1
