@<TRIPOS>MOLECULE
CHEMBL44426
   67    71     0     0     0
SMALL
USER_CHARGES

@<TRIPOS>ATOM
      1 C1          0.2082    1.8485    0.1393 C.3       1 <0>        -0.0832
      2 C2          0.1381    0.3434    0.1696 C.2       1 <0>        -0.1420
      3 C3          0.0467   -0.5467   -0.9866 C.ar      1 <0>        -0.0879
      4 C4         -0.0027   -0.3350   -2.3680 C.ar      1 <0>        -0.0927
      5 C5         -0.0901   -1.4165   -3.2209 C.ar      1 <0>         0.0783
      6 C6         -0.1290   -2.7118   -2.7105 C.ar      1 <0>        -0.1157
      7 C7         -0.0810   -2.9325   -1.3519 C.ar      1 <0>        -0.1165
      8 C8          0.0072   -1.8570   -0.4747 C.ar      1 <0>         0.1036
      9 N1          0.0706   -1.7643    0.9007 N.pl3     1 <0>        -0.4723
     10 C9          0.1538   -0.4432    1.2745 C.2       1 <0>         0.1156
     11 C10         0.2436    0.0448    2.6674 C.ar      1 <0>        -0.0360
     12 C11        -0.5862   -0.4935    3.6523 C.ar      1 <0>        -0.0978
     13 C12        -0.4995   -0.0359    4.9498 C.ar      1 <0>        -0.1404
     14 C13         0.4118    0.9593    5.2775 C.ar      1 <0>         0.1145
     15 C14         1.2388    1.4976    4.3004 C.ar      1 <0>        -0.1416
     16 C15         1.1624    1.0409    3.0020 C.ar      1 <0>        -0.0783
     17 O1          0.4943    1.4077    6.5574 O.3       1 <0>        -0.4956
     18 C16         0.0568   -2.9019    1.8236 C.3       1 <0>         0.1426
     19 C17         1.4701   -3.3582    2.0796 C.ar      1 <0>        -0.1307
     20 C18         2.0446   -4.3158    1.2643 C.ar      1 <0>        -0.0557
     21 C19         3.3398   -4.7360    1.4972 C.ar      1 <0>        -0.1409
     22 C20         4.0643   -4.1961    2.5498 C.ar      1 <0>         0.1224
     23 C21         3.4858   -3.2350    3.3662 C.ar      1 <0>        -0.2024
     24 C22         2.1921   -2.8144    3.1259 C.ar      1 <0>        -0.0534
     25 O2          5.3385   -4.6082    2.7813 O.3       1 <0>        -0.3275
     26 C23         6.0242   -4.0089    3.8825 C.3       1 <0>         0.0256
     27 C24         7.4342   -4.5942    3.9848 C.3       1 <0>        -0.0007
     28 N2          8.1981   -4.2447    2.7797 N.4       1 <0>        -0.3843
     29 C25         9.4936   -4.9342    2.8063 C.3       1 <0>        -0.0070
     30 C26        10.2599   -4.6380    1.5154 C.3       1 <0>        -0.1467
     31 C27        10.4859   -3.1280    1.3973 C.3       1 <0>        -0.1389
     32 C28         9.1320   -2.4139    1.4454 C.3       1 <0>        -0.1454
     33 C29         8.4075   -2.7924    2.7389 C.3       1 <0>        -0.0130
     34 O3         -0.1389   -1.2166   -4.5651 O.3       1 <0>        -0.4958
     35 H1          1.2504    2.1626    0.0828 H         1 <0>         0.0648
     36 H2         -0.3310    2.2198   -0.7321 H         1 <0>         0.0681
     37 H3         -0.2441    2.2516    1.0454 H         1 <0>         0.0666
     38 H4          0.0270    0.6689   -2.7651 H         1 <0>         0.1302
     39 H5         -0.1978   -3.5511   -3.3866 H         1 <0>         0.1330
     40 H6         -0.1122   -3.9414   -0.9676 H         1 <0>         0.1214
     41 H7         -1.2955   -1.2673    3.3981 H         1 <0>         0.1288
     42 H8         -1.1415   -0.4516    5.7123 H         1 <0>         0.1347
     43 H9          1.9461    2.2717    4.5591 H         1 <0>         0.1344
     44 H10         1.8095    1.4564    2.2437 H         1 <0>         0.1327
     45 H11         1.1269    0.9220    7.1043 H         1 <0>         0.3923
     46 H12        -0.4039   -2.6010    2.7645 H         1 <0>         0.1036
     47 H13        -0.5149   -3.7194    1.3842 H         1 <0>         0.1001
     48 H14         1.4801   -4.7359    0.4449 H         1 <0>         0.1351
     49 H15         3.7878   -5.4846    0.8605 H         1 <0>         0.1354
     50 H16         4.0478   -2.8132    4.1863 H         1 <0>         0.1284
     51 H17         1.7427   -2.0631    3.7584 H         1 <0>         0.1294
     52 H18         6.0883   -2.9318    3.7280 H         1 <0>         0.0862
     53 H19         5.4788   -4.2119    4.8041 H         1 <0>         0.1095
     54 H20         7.9342   -4.1859    4.8630 H         1 <0>         0.1493
     55 H21         7.3718   -5.6787    4.0736 H         1 <0>         0.1428
     56 H22        10.0732   -4.5847    3.6607 H         1 <0>         0.1294
     57 H23         9.3312   -6.0085    2.8935 H         1 <0>         0.1312
     58 H24        11.2222   -5.1494    1.5379 H         1 <0>         0.1134
     59 H25         9.6813   -4.9874    0.6603 H         1 <0>         0.0879
     60 H26        11.1076   -2.7866    2.2250 H         1 <0>         0.0823
     61 H27        10.9815   -2.9063    0.4521 H         1 <0>         0.0950
     62 H28         9.2881   -1.3354    1.4179 H         1 <0>         0.1125
     63 H29         8.5299   -2.7171    0.5889 H         1 <0>         0.0877
     64 H30         7.4432   -2.2856    2.7765 H         1 <0>         0.1265
     65 H31         9.0102   -2.4886    3.5948 H         1 <0>         0.1305
     66 H32         0.7286   -1.2000   -4.9921 H         1 <0>         0.3873
     67 H33         7.6830   -4.5323    1.9611 H         1 <0>         0.4293
@<TRIPOS>BOND
     1    1    2 1
     2    1   35 1
     3    1   36 1
     4    1   37 1
     5    2   10 2
     6    2    3 1
     7    3    8 ar
     8    3    4 ar
     9    4    5 ar
    10    4   38 1
    11    5    6 ar
    12    5   34 1
    13    6    7 ar
    14    6   39 1
    15    7    8 ar
    16    7   40 1
    17    8    9 1
    18    9   10 1
    19    9   18 1
    20   10   11 1
    21   11   16 ar
    22   11   12 ar
    23   12   13 ar
    24   12   41 1
    25   13   14 ar
    26   13   42 1
    27   14   15 ar
    28   14   17 1
    29   15   16 ar
    30   15   43 1
    31   16   44 1
    32   17   45 1
    33   18   19 1
    34   18   46 1
    35   18   47 1
    36   19   24 ar
    37   19   20 ar
    38   20   21 ar
    39   20   48 1
    40   21   22 ar
    41   21   49 1
    42   22   23 ar
    43   22   25 1
    44   23   24 ar
    45   23   50 1
    46   24   51 1
    47   25   26 1
    48   26   27 1
    49   26   52 1
    50   26   53 1
    51   27   28 1
    52   27   54 1
    53   27   55 1
    54   28   33 1
    55   28   29 1
    56   28   67 1
    57   29   30 1
    58   29   56 1
    59   29   57 1
    60   30   31 1
    61   30   58 1
    62   30   59 1
    63   31   32 1
    64   31   60 1
    65   31   61 1
    66   32   33 1
    67   32   62 1
    68   32   63 1
    69   33   64 1
    70   33   65 1
    71   34   66 1
