@<TRIPOS>MOLECULE
CHEMBL382873
   44    46     0     0     0
SMALL
USER_CHARGES

@<TRIPOS>ATOM
      1 C1         -0.1217    1.0963   -0.6142 C.ar      1 <0>        -0.1113
      2 C2          0.4144    1.0187    0.6582 C.ar      1 <0>        -0.1142
      3 C3          1.6540    0.4418    0.8529 C.ar      1 <0>        -0.1162
      4 C4          2.3623   -0.0609   -0.2311 C.ar      1 <0>         0.1373
      5 C5          1.8209    0.0186   -1.5079 C.ar      1 <0>        -0.0986
      6 C6          0.5808    0.5969   -1.6955 C.ar      1 <0>        -0.1087
      7 N1          3.6165   -0.6447   -0.0378 N.pl3     1 <0>        -0.9450
      8 C7          3.7222   -1.9584    0.6019 C.3       1 <0>         0.1470
      9 C8          2.8480   -2.9638   -0.1503 C.3       1 <0>        -0.1230
     10 C9          2.9584   -4.3357    0.5178 C.3       1 <0>        -0.1186
     11 C10         2.4864   -4.2354    1.9697 C.3       1 <0>        -0.1223
     12 C11         3.3606   -3.2300    2.7219 C.3       1 <0>        -0.1180
     13 C12         3.2502   -1.8581    2.0538 C.3       1 <0>        -0.1373
     14 S1          4.9838    0.1482   -0.5318 S.o2      1 <0>         2.6817
     15 O1          5.9380   -0.8527   -0.8586 O.2       1 <0>        -0.9479
     16 O2          4.5661    1.1359   -1.4641 O.2       1 <0>        -0.9423
     17 C13         5.6189    1.0121    0.8664 C.ar      1 <0>        -0.6878
     18 C14         5.2809    2.3371    1.0710 C.ar      1 <0>         0.0013
     19 C15         5.7779    3.0168    2.1662 C.ar      1 <0>        -0.1660
     20 C16         6.6164    2.3686    3.0614 C.ar      1 <0>         0.1670
     21 C17         6.9537    1.0390    2.8541 C.ar      1 <0>        -0.1661
     22 C18         6.4499    0.3623    1.7602 C.ar      1 <0>        -0.0029
     23 O3          7.1070    3.0352    4.1393 O.3       1 <0>        -0.4968
     24 H1         -1.0932    1.5439   -0.7631 H         1 <0>         0.1260
     25 H2         -0.1367    1.4101    1.5005 H         1 <0>         0.1265
     26 H3          2.0722    0.3818    1.8468 H         1 <0>         0.1283
     27 H4          2.3692   -0.3709   -2.3529 H         1 <0>         0.1256
     28 H5          0.1593    0.6591   -2.6879 H         1 <0>         0.1289
     29 H6          4.7600   -2.2910    0.5794 H         1 <0>         0.1035
     30 H7          1.8102   -2.6312   -0.1278 H         1 <0>         0.0719
     31 H8          3.1843   -3.0352   -1.1847 H         1 <0>         0.0696
     32 H9          2.3356   -5.0520   -0.0181 H         1 <0>         0.0682
     33 H10         3.9962   -4.6684    0.4953 H         1 <0>         0.0663
     34 H11         1.4486   -3.9028    1.9922 H         1 <0>         0.0631
     35 H12         2.5650   -5.2129    2.4457 H         1 <0>         0.0647
     36 H13         3.0243   -3.1586    3.7563 H         1 <0>         0.0669
     37 H14         4.3984   -3.5626    2.6994 H         1 <0>         0.0652
     38 H15         3.8730   -1.1418    2.5897 H         1 <0>         0.0657
     39 H16         2.2124   -1.5255    2.0763 H         1 <0>         0.0774
     40 H17         4.6281    2.8412    0.3738 H         1 <0>         0.1458
     41 H18         5.5141    4.0519    2.3252 H         1 <0>         0.1409
     42 H19         7.6064    0.5322    3.5496 H         1 <0>         0.1408
     43 H20         6.7087   -0.6741    1.6008 H         1 <0>         0.1425
     44 H21         6.5477    2.9765    4.9260 H         1 <0>         0.4008
@<TRIPOS>BOND
     1    1    6 ar
     2    1    2 ar
     3    1   24 1
     4    2    3 ar
     5    2   25 1
     6    3    4 ar
     7    3   26 1
     8    4    5 ar
     9    4    7 1
    10    5    6 ar
    11    5   27 1
    12    6   28 1
    13    7    8 1
    14    7   14 1
    15    8   13 1
    16    8    9 1
    17    8   29 1
    18    9   10 1
    19    9   30 1
    20    9   31 1
    21   10   11 1
    22   10   32 1
    23   10   33 1
    24   11   12 1
    25   11   34 1
    26   11   35 1
    27   12   13 1
    28   12   36 1
    29   12   37 1
    30   13   38 1
    31   13   39 1
    32   14   15 2
    33   14   16 2
    34   14   17 1
    35   17   22 ar
    36   17   18 ar
    37   18   19 ar
    38   18   40 1
    39   19   20 ar
    40   19   41 1
    41   20   21 ar
    42   20   23 1
    43   21   22 ar
    44   21   42 1
    45   22   43 1
    46   23   44 1
