@<TRIPOS>MOLECULE
CHEMBL191646
   74    79     0     0     0
SMALL
USER_CHARGES

@<TRIPOS>ATOM
      1 C1          7.0856    2.9096    2.2778 C.ar      1 <0>        -0.0533
      2 C2          5.9422    3.1487    1.5400 C.ar      1 <0>        -0.2072
      3 C3          5.2259    4.3241    1.7288 C.ar      1 <0>         0.2404
      4 C4          5.6605    5.2576    2.6601 C.ar      1 <0>        -0.2252
      5 C5          6.8075    5.0136    3.3983 C.ar      1 <0>         0.1546
      6 C6          7.5194    3.8376    3.2050 C.ar      1 <0>        -0.2013
      7 O1          7.2358    5.9254    4.3104 O.3       1 <0>        -0.5017
      8 N1          4.0706    4.5665    0.9824 N.pl3     1 <0>        -0.6179
      9 C7          3.2308    5.7494    1.2339 C.3       1 <0>         0.1130
     10 C8          1.8669    5.2620    1.7204 C.3       1 <0>        -0.1028
     11 C9          1.3455    4.1589    0.8374 C.ar      1 <0>        -0.0469
     12 C10        -0.0194    3.9032    0.8662 C.ar      1 <0>        -0.1476
     13 C11        -0.5630    2.8967    0.0871 C.ar      1 <0>         0.1149
     14 C12         0.2629    2.1365   -0.7286 C.ar      1 <0>        -0.1454
     15 C13         1.6168    2.3946   -0.7588 C.ar      1 <0>        -0.0885
     16 C14         2.1604    3.4084    0.0193 C.ar      1 <0>        -0.1003
     17 C15         3.6486    3.6561   -0.0873 C.3       1 <0>         0.2404
     18 C16         3.9642    4.2739   -1.4251 C.ar      1 <0>        -0.1256
     19 C17         4.9012    3.6841   -2.2536 C.ar      1 <0>        -0.0559
     20 C18         5.1928    4.2477   -3.4802 C.ar      1 <0>        -0.1838
     21 C19         4.5436    5.4084   -3.8815 C.ar      1 <0>         0.2023
     22 C20         3.6029    5.9983   -3.0468 C.ar      1 <0>        -0.1850
     23 C21         3.3120    5.4263   -1.8239 C.ar      1 <0>        -0.0530
     24 N2          4.8364    5.9813   -5.1212 N.pl3     1 <0>        -0.6436
     25 C22         4.2601    7.2775   -5.5105 C.3       1 <0>         0.1018
     26 C23         5.3933    8.1860   -5.9988 C.3       1 <0>        -0.0270
     27 N3          6.1368    7.5077   -7.0680 N.4       1 <0>        -0.3797
     28 C24         6.7942    6.3072   -6.5361 C.3       1 <0>        -0.0273
     29 C25         5.7348    5.3084   -6.0721 C.3       1 <0>         0.1004
     30 C26         7.1522    8.4200   -7.6107 C.3       1 <0>         0.0248
     31 C27         6.4681    9.6666   -8.1756 C.3       1 <0>        -0.1403
     32 C28         7.5257   10.6168   -8.7408 C.3       1 <0>        -0.1174
     33 C29         8.3015    9.9117   -9.8551 C.3       1 <0>        -0.1315
     34 C30         8.9856    8.6651   -9.2903 C.3       1 <0>        -0.1174
     35 C31         7.9280    7.7149   -8.7251 C.3       1 <0>        -0.1404
     36 O2         -1.8998    2.6544    0.1205 O.3       1 <0>        -0.4975
     37 H1          7.6388    1.9935    2.1327 H         1 <0>         0.1269
     38 H2          5.6053    2.4217    0.8159 H         1 <0>         0.1213
     39 H3          5.1058    6.1723    2.8087 H         1 <0>         0.1282
     40 H4          8.4134    3.6476    3.7804 H         1 <0>         0.1259
     41 H5          6.8745    5.7939    5.1976 H         1 <0>         0.3948
     42 H6          3.6932    6.3742    1.9980 H         1 <0>         0.0922
     43 H7          3.1116    6.3196    0.3127 H         1 <0>         0.0731
     44 H8          1.9621    4.8899    2.7405 H         1 <0>         0.0861
     45 H9          1.1633    6.0944    1.7075 H         1 <0>         0.0876
     46 H10        -0.6617    4.4943    1.5021 H         1 <0>         0.1300
     47 H11        -0.1528    1.3469   -1.3370 H         1 <0>         0.1313
     48 H12         2.2604    1.8027   -1.3926 H         1 <0>         0.1260
     49 H13         4.1822    2.7105    0.0096 H         1 <0>         0.1049
     50 H14         5.4058    2.7819   -1.9409 H         1 <0>         0.1277
     51 H15         5.9249    3.7867   -4.1267 H         1 <0>         0.1239
     52 H16         3.0967    6.9009   -3.3555 H         1 <0>         0.1224
     53 H17         2.5775    5.8820   -1.1763 H         1 <0>         0.1281
     54 H18         3.5368    7.1307   -6.3127 H         1 <0>         0.0870
     55 H19         3.7699    7.7336   -4.6504 H         1 <0>         0.1256
     56 H20         4.9739    9.1164   -6.3816 H         1 <0>         0.1422
     57 H21         6.0666    8.4045   -5.1701 H         1 <0>         0.1321
     58 H22         7.4071    5.8533   -7.3148 H         1 <0>         0.1427
     59 H23         7.4252    6.5826   -5.6911 H         1 <0>         0.1321
     60 H24         6.2192    4.4632   -5.5831 H         1 <0>         0.1269
     61 H25         5.1630    4.9594   -6.9320 H         1 <0>         0.0870
     62 H26         7.8403    8.7113   -6.8171 H         1 <0>         0.1356
     63 H27         5.7800    9.3753   -8.9692 H         1 <0>         0.0867
     64 H28         5.9154   10.1689   -7.3817 H         1 <0>         0.0869
     65 H29         7.0383   11.5049   -9.1432 H         1 <0>         0.0852
     66 H30         8.2137   10.9081   -7.9472 H         1 <0>         0.0742
     67 H31         7.6134    9.6204  -10.6487 H         1 <0>         0.0704
     68 H32         9.0549   10.5886  -10.2578 H         1 <0>         0.0799
     69 H33         9.5383    8.1628  -10.0842 H         1 <0>         0.0853
     70 H34         9.6737    8.9564   -8.4967 H         1 <0>         0.0743
     71 H35         8.4154    6.8268   -8.3227 H         1 <0>         0.0872
     72 H36         7.2399    7.4236   -9.5187 H         1 <0>         0.0868
     73 H37        -2.4075    3.1598   -0.5291 H         1 <0>         0.3929
     74 H38         5.4990    7.2424   -7.8035 H         1 <0>         0.4198
@<TRIPOS>BOND
     1    1    6 ar
     2    1    2 ar
     3    1   37 1
     4    2    3 ar
     5    2   38 1
     6    3    4 ar
     7    3    8 1
     8    4    5 ar
     9    4   39 1
    10    5    6 ar
    11    5    7 1
    12    6   40 1
    13    7   41 1
    14    8   17 1
    15    8    9 1
    16    9   10 1
    17    9   42 1
    18    9   43 1
    19   10   11 1
    20   10   44 1
    21   10   45 1
    22   11   16 ar
    23   11   12 ar
    24   12   13 ar
    25   12   46 1
    26   13   14 ar
    27   13   36 1
    28   14   15 ar
    29   14   47 1
    30   15   16 ar
    31   15   48 1
    32   16   17 1
    33   17   18 1
    34   17   49 1
    35   18   23 ar
    36   18   19 ar
    37   19   20 ar
    38   19   50 1
    39   20   21 ar
    40   20   51 1
    41   21   22 ar
    42   21   24 1
    43   22   23 ar
    44   22   52 1
    45   23   53 1
    46   24   29 1
    47   24   25 1
    48   25   26 1
    49   25   54 1
    50   25   55 1
    51   26   27 1
    52   26   56 1
    53   26   57 1
    54   27   28 1
    55   27   30 1
    56   27   74 1
    57   28   29 1
    58   28   58 1
    59   28   59 1
    60   29   60 1
    61   29   61 1
    62   30   35 1
    63   30   31 1
    64   30   62 1
    65   31   32 1
    66   31   63 1
    67   31   64 1
    68   32   33 1
    69   32   65 1
    70   32   66 1
    71   33   34 1
    72   33   67 1
    73   33   68 1
    74   34   35 1
    75   34   69 1
    76   34   70 1
    77   35   71 1
    78   35   72 1
    79   36   73 1
