@<TRIPOS>MOLECULE
CHEMBL380469
   49    52     0     0     0
SMALL
USER_CHARGES

@<TRIPOS>ATOM
      1 C1         -0.0187    1.5258    0.0104 C.3       1 <0>        -0.1540
      2 C2          0.0021   -0.0041    0.0020 C.3       1 <0>        -0.1256
      3 C3          0.7182   -0.4975   -1.2568 C.3       1 <0>        -0.1217
      4 C4          0.7390   -2.0273   -1.2652 C.3       1 <0>        -0.1000
      5 C5          1.4551   -2.5207   -2.5240 C.3       1 <0>        -0.0385
      6 C6          2.8989   -2.0164   -2.5805 C.3       1 <0>        -0.1068
      7 C7          3.6688   -2.6104   -1.3966 C.3       1 <0>        -0.1666
      8 C8          3.6072   -4.1135   -1.4237 C.2       1 <0>         0.3945
      9 O1          4.5064   -4.7578   -0.9234 O.2       1 <0>        -0.4542
     10 C9          2.5125   -4.7905   -2.0268 C.2       1 <0>        -0.1607
     11 C10         1.5039   -4.0429   -2.5822 C.2       1 <0>         0.0346
     12 C11         0.3440   -4.4616   -3.3457 C.ar      1 <0>        -0.1032
     13 C12        -0.3008   -5.7109   -3.3881 C.ar      1 <0>        -0.0592
     14 C13        -1.3676   -5.8361   -4.2414 C.ar      1 <0>        -0.1582
     15 C14        -1.8005   -4.7832   -5.0351 C.ar      1 <0>         0.1310
     16 C15        -1.1832   -3.5300   -4.9953 C.ar      1 <0>        -0.1377
     17 C16        -0.1202   -3.3814   -4.1308 C.ar      1 <0>        -0.0505
     18 C17         0.6757   -2.1495   -3.8006 C.3       1 <0>        -0.0801
     19 O2         -2.8509   -4.9757   -5.8724 O.3       1 <0>        -0.4990
     20 C18         2.4610   -6.2713   -2.0553 C.ar      1 <0>        -0.0283
     21 C19         1.4599   -6.9503   -1.3617 C.ar      1 <0>        -0.1115
     22 C20         1.4171   -8.3292   -1.3919 C.ar      1 <0>        -0.1222
     23 C21         2.3649   -9.0379   -2.1085 C.ar      1 <0>        -0.1160
     24 C22         3.3608   -8.3697   -2.7982 C.ar      1 <0>        -0.1169
     25 C23         3.4102   -6.9908   -2.7805 C.ar      1 <0>        -0.0926
     26 H1          1.0039    1.9031    0.0027 H         1 <0>         0.0543
     27 H2         -0.5459    1.8868   -0.8726 H         1 <0>         0.0537
     28 H3         -0.5289    1.8773    0.9072 H         1 <0>         0.0540
     29 H4          0.5293   -0.3651    0.8851 H         1 <0>         0.0616
     30 H5         -1.0205   -0.3814    0.0098 H         1 <0>         0.0611
     31 H6          0.1910   -0.1364   -2.1398 H         1 <0>         0.0669
     32 H7          1.7408   -0.1202   -1.2645 H         1 <0>         0.0689
     33 H8          1.2661   -2.3884   -0.3821 H         1 <0>         0.0709
     34 H9         -0.2836   -2.4046   -1.2575 H         1 <0>         0.0706
     35 H10         3.3615   -2.3345   -3.5148 H         1 <0>         0.0752
     36 H11         2.9095   -0.9284   -2.5153 H         1 <0>         0.0877
     37 H12         4.7101   -2.2926   -1.4495 H         1 <0>         0.0987
     38 H13         3.2307   -2.2498   -0.4660 H         1 <0>         0.1038
     39 H14         0.0299   -6.5363   -2.7753 H         1 <0>         0.1471
     40 H15        -1.8856   -6.7821   -4.2974 H         1 <0>         0.1306
     41 H16        -1.5240   -2.7139   -5.6151 H         1 <0>         0.1408
     42 H17         0.0107   -1.3075   -3.6085 H         1 <0>         0.0948
     43 H18         1.3647   -1.9134   -4.6115 H         1 <0>         0.0937
     44 H19        -3.7108   -4.7785   -5.4765 H         1 <0>         0.3946
     45 H20         0.7197   -6.3982   -0.8016 H         1 <0>         0.1223
     46 H21         0.6425   -8.8563   -0.8548 H         1 <0>         0.1251
     47 H22         2.3274  -10.1170   -2.1292 H         1 <0>         0.1234
     48 H23         4.0984   -8.9283   -3.3553 H         1 <0>         0.1243
     49 H24         4.1850   -6.4701   -3.3235 H         1 <0>         0.1195
@<TRIPOS>BOND
     1    1    2 1
     2    1   26 1
     3    1   27 1
     4    1   28 1
     5    2    3 1
     6    2   29 1
     7    2   30 1
     8    3    4 1
     9    3   31 1
    10    3   32 1
    11    4    5 1
    12    4   33 1
    13    4   34 1
    14    5   11 1
    15    5   18 1
    16    5    6 1
    17    6    7 1
    18    6   35 1
    19    6   36 1
    20    7    8 1
    21    7   37 1
    22    7   38 1
    23    8    9 2
    24    8   10 1
    25   10   11 2
    26   10   20 1
    27   11   12 1
    28   12   17 ar
    29   12   13 ar
    30   13   14 ar
    31   13   39 1
    32   14   15 ar
    33   14   40 1
    34   15   16 ar
    35   15   19 1
    36   16   17 ar
    37   16   41 1
    38   17   18 1
    39   18   42 1
    40   18   43 1
    41   19   44 1
    42   20   25 ar
    43   20   21 ar
    44   21   22 ar
    45   21   45 1
    46   22   23 ar
    47   22   46 1
    48   23   24 ar
    49   23   47 1
    50   24   25 ar
    51   24   48 1
    52   25   49 1
