@<TRIPOS>MOLECULE
CHEMBL214200
   47    51     0     0     0
SMALL
USER_CHARGES

@<TRIPOS>ATOM
      1 C1         -0.0187    1.5258    0.0104 C.3       1 <0>        -0.1541
      2 C2          0.0021   -0.0041    0.0020 C.3       1 <0>        -0.1263
      3 C3         -1.4333   -0.5336    0.0129 C.3       1 <0>        -0.1213
      4 C4         -1.4126   -2.0635    0.0045 C.3       1 <0>        -0.1030
      5 C5         -2.8479   -2.5931    0.0153 C.3       1 <0>        -0.0333
      6 C6         -3.6347   -2.1039   -1.2026 C.3       1 <0>        -0.1083
      7 C7         -2.9850   -2.6658   -2.4704 C.3       1 <0>        -0.1615
      8 C8         -2.9548   -4.1708   -2.4274 C.2       1 <0>         0.3994
      9 O1         -2.9716   -4.8058   -3.4615 O.2       1 <0>        -0.4421
     10 C9         -2.9046   -4.8733   -1.1373 C.2       1 <0>        -0.1145
     11 C10        -2.8853   -4.1129    0.0075 C.2       1 <0>         0.0377
     12 C11        -2.9320   -4.5364    1.4059 C.ar      1 <0>        -0.0544
     13 C12        -2.5924   -5.7629    2.0141 C.ar      1 <0>        -0.0779
     14 C13        -2.7781   -5.9533    3.3465 C.ar      1 <0>        -0.0535
     15 C14        -3.3051   -4.9237    4.1356 C.ar      1 <0>         0.0321
     16 C15        -3.6132   -3.6799    3.5490 C.ar      1 <0>         0.0349
     17 C16        -3.4113   -3.4830    2.1927 C.ar      1 <0>        -0.0505
     18 C17        -3.5688   -2.2472    1.3301 C.3       1 <0>        -0.0766
     19 N1         -4.0871   -2.9033    4.5792 N.pl3     1 <0>        -0.4131
     20 N2         -4.0725   -3.6126    5.6543 N.2       1 <0>        -0.0051
     21 N3         -3.6243   -4.7989    5.4382 N.2       1 <0>        -0.2479
     22 H1         -4.3809   -1.9815    4.5090 H         1 <0>         0.4538
     23 C18        -2.8769   -6.3468   -1.0732 C.2       1 <0>         0.0293
     24 C19        -3.8715   -7.1833   -1.4794 C.2       1 <0>        -0.1723
     25 C20        -3.4219   -8.4960   -1.2362 C.2       1 <0>        -0.2082
     26 C21        -2.1894   -8.3987   -0.6997 C.2       1 <0>        -0.0376
     27 O2         -1.8610   -7.0991   -0.6080 O.3       1 <0>        -0.1701
     28 H2          1.0039    1.9031    0.0027 H         1 <0>         0.0548
     29 H3         -0.5459    1.8868   -0.8726 H         1 <0>         0.0548
     30 H4         -0.5289    1.8773    0.9072 H         1 <0>         0.0531
     31 H5          0.5123   -0.3556   -0.8948 H         1 <0>         0.0632
     32 H6          0.5293   -0.3651    0.8851 H         1 <0>         0.0615
     33 H7         -1.9435   -0.1821    0.9097 H         1 <0>         0.0656
     34 H8         -1.9605   -0.1726   -0.8702 H         1 <0>         0.0707
     35 H9         -0.9024   -2.4150   -0.8923 H         1 <0>         0.0751
     36 H10        -0.8854   -2.4246    0.8875 H         1 <0>         0.0731
     37 H11        -4.6654   -2.4522   -1.1354 H         1 <0>         0.0788
     38 H12        -3.6170   -1.0145   -1.2353 H         1 <0>         0.0921
     39 H13        -3.5562   -2.3424   -3.3406 H         1 <0>         0.1050
     40 H14        -1.9656   -2.2880   -2.5496 H         1 <0>         0.1088
     41 H15        -2.1803   -6.5603    1.4135 H         1 <0>         0.1432
     42 H16        -2.5193   -6.8999    3.7973 H         1 <0>         0.1468
     43 H17        -3.0967   -1.3884    1.8073 H         1 <0>         0.0951
     44 H18        -4.6237   -2.0465    1.1432 H         1 <0>         0.0973
     45 H19        -4.8215   -6.8960   -1.9053 H         1 <0>         0.1472
     46 H20        -3.9630   -9.4081   -1.4405 H         1 <0>         0.1516
     47 H21        -1.5671   -9.2280   -0.3975 H         1 <0>         0.2065
@<TRIPOS>BOND
     1    1    2 1
     2    1   28 1
     3    1   29 1
     4    1   30 1
     5    2    3 1
     6    2   31 1
     7    2   32 1
     8    3    4 1
     9    3   33 1
    10    3   34 1
    11    4    5 1
    12    4   35 1
    13    4   36 1
    14    5   11 1
    15    5   18 1
    16    5    6 1
    17    6    7 1
    18    6   37 1
    19    6   38 1
    20    7    8 1
    21    7   39 1
    22    7   40 1
    23    8    9 2
    24    8   10 1
    25   10   11 2
    26   10   23 1
    27   11   12 1
    28   12   17 ar
    29   12   13 ar
    30   13   14 ar
    31   13   41 1
    32   14   15 ar
    33   14   42 1
    34   15   16 ar
    35   15   21 1
    36   16   17 ar
    37   16   19 1
    38   17   18 1
    39   18   43 1
    40   18   44 1
    41   19   22 1
    42   19   20 1
    43   20   21 2
    44   23   27 1
    45   23   24 2
    46   24   25 1
    47   24   45 1
    48   25   26 2
    49   25   46 1
    50   26   27 1
    51   26   47 1
