@<TRIPOS>MOLECULE
CHEMBL46740
   70    74     0     0     0
SMALL
USER_CHARGES

@<TRIPOS>ATOM
      1 C1          0.1983    1.8394    0.1429 C.3       1 <0>        -0.0833
      2 C2          0.1339    0.3340    0.1656 C.2       1 <0>        -0.1419
      3 C3          0.0503   -0.5507   -0.9954 C.ar      1 <0>        -0.0878
      4 C4          0.0055   -0.3324   -2.3758 C.ar      1 <0>        -0.0927
      5 C5         -0.0745   -1.4101   -3.2344 C.ar      1 <0>         0.0783
      6 C6         -0.1103   -2.7080   -2.7305 C.ar      1 <0>        -0.1157
      7 C7         -0.0667   -2.9353   -1.3728 C.ar      1 <0>        -0.1165
      8 C8          0.0139   -1.8637   -0.4900 C.ar      1 <0>         0.1035
      9 N1          0.0717   -1.7775    0.8861 N.pl3     1 <0>        -0.4723
     10 C9          0.1483   -0.4580    1.2667 C.2       1 <0>         0.1157
     11 C10         0.2309    0.0235    2.6623 C.ar      1 <0>        -0.0361
     12 C11        -0.6007   -0.5228    3.6413 C.ar      1 <0>        -0.0977
     13 C12        -0.5207   -0.0712    4.9413 C.ar      1 <0>        -0.1404
     14 C13         0.3855    0.9258    5.2774 C.ar      1 <0>         0.1145
     15 C14         1.2141    1.4721    4.3062 C.ar      1 <0>        -0.1416
     16 C15         1.1445    1.0215    3.0053 C.ar      1 <0>        -0.0782
     17 O1          0.4613    1.3682    6.5598 O.3       1 <0>        -0.4956
     18 C16         0.0588   -2.9197    1.8033 C.3       1 <0>         0.1425
     19 C17         1.4728   -3.3718    2.0626 C.ar      1 <0>        -0.1304
     20 C18         2.0541   -4.3232    1.2448 C.ar      1 <0>        -0.0557
     21 C19         3.3500   -4.7396    1.4806 C.ar      1 <0>        -0.1407
     22 C20         4.0684   -4.2020    2.5388 C.ar      1 <0>         0.1223
     23 C21         3.4830   -3.2472    3.3575 C.ar      1 <0>        -0.2022
     24 C22         2.1886   -2.8304    3.1143 C.ar      1 <0>        -0.0534
     25 O2          5.3432   -4.6103    2.7731 O.3       1 <0>        -0.3277
     26 C23         6.0224   -4.0138    3.8799 C.3       1 <0>         0.0240
     27 C24         7.4342   -4.5942    3.9848 C.3       1 <0>        -0.0077
     28 N2          8.1981   -4.2447    2.7797 N.4       1 <0>        -0.3670
     29 C25         9.4603   -5.0095    2.7810 C.3       1 <0>        -0.0035
     30 C26         9.9368   -5.1393    1.3560 C.3       1 <0>        -0.1501
     31 C27        10.9684   -4.0508    1.0054 C.3       1 <0>        -0.1310
     32 C28        10.5786   -2.6811    1.5972 C.3       1 <0>        -0.1388
     33 C29         9.1035   -2.3990    1.4690 C.3       1 <0>        -0.1341
     34 C30         8.3886   -2.8620    2.7557 C.3       1 <0>        -0.0397
     35 O3         -0.1188   -1.2038   -4.5778 O.3       1 <0>        -0.4958
     36 H1          1.2395    2.1578    0.0920 H         1 <0>         0.0648
     37 H2         -0.3390    2.2130   -0.7288 H         1 <0>         0.0681
     38 H3         -0.2591    2.2364    1.0492 H         1 <0>         0.0666
     39 H4          0.0329    0.6735   -2.7679 H         1 <0>         0.1302
     40 H5         -0.1733   -3.5443   -3.4109 H         1 <0>         0.1330
     41 H6         -0.0955   -3.9461   -0.9935 H         1 <0>         0.1214
     42 H7         -1.3060   -1.2980    3.3806 H         1 <0>         0.1288
     43 H8         -1.1640   -0.4932    5.6993 H         1 <0>         0.1347
     44 H9          1.9174    2.2476    4.5715 H         1 <0>         0.1344
     45 H10         1.7929    1.4432    2.2515 H         1 <0>         0.1327
     46 H11         1.0936    0.8823    7.1068 H         1 <0>         0.3923
     47 H12        -0.4068   -2.6252    2.7439 H         1 <0>         0.1036
     48 H13        -0.5081   -3.7372    1.3577 H         1 <0>         0.1001
     49 H14         1.4944   -4.7414    0.4212 H         1 <0>         0.1351
     50 H15         3.8034   -5.4832    0.8421 H         1 <0>         0.1355
     51 H16         4.0402   -2.8272    4.1819 H         1 <0>         0.1284
     52 H17         1.7339   -2.0839    3.7488 H         1 <0>         0.1294
     53 H18         6.0829   -2.9358    3.7309 H         1 <0>         0.0872
     54 H19         5.4742   -4.2235    4.7984 H         1 <0>         0.1103
     55 H20         7.9320   -4.1823    4.8627 H         1 <0>         0.1506
     56 H21         7.3753   -5.6788    4.0758 H         1 <0>         0.1447
     57 H22        10.2089   -4.4820    3.3721 H         1 <0>         0.1340
     58 H23         9.2893   -5.9999    3.2029 H         1 <0>         0.1350
     59 H24        10.3934   -6.1198    1.2208 H         1 <0>         0.1092
     60 H25         9.0824   -5.0498    0.6850 H         1 <0>         0.0821
     61 H26        11.9417   -4.3438    1.3992 H         1 <0>         0.0808
     62 H27        11.0373   -3.9626   -0.0788 H         1 <0>         0.0819
     63 H28        10.8514   -2.6619    2.6523 H         1 <0>         0.0693
     64 H29        11.1338   -1.9008    1.0766 H         1 <0>         0.0870
     65 H30         8.9476   -1.3292    1.3301 H         1 <0>         0.1090
     66 H31         8.7015   -2.9415    0.6133 H         1 <0>         0.0874
     67 H32         7.4183   -2.3694    2.8189 H         1 <0>         0.1271
     68 H33         8.9884   -2.5719    3.6184 H         1 <0>         0.1289
     69 H34         0.7502   -1.1817   -5.0013 H         1 <0>         0.3873
     70 H35         7.6609   -4.5114    1.9682 H         1 <0>         0.4259
@<TRIPOS>BOND
     1    1    2 1
     2    1   36 1
     3    1   37 1
     4    1   38 1
     5    2   10 2
     6    2    3 1
     7    3    8 ar
     8    3    4 ar
     9    4    5 ar
    10    4   39 1
    11    5    6 ar
    12    5   35 1
    13    6    7 ar
    14    6   40 1
    15    7    8 ar
    16    7   41 1
    17    8    9 1
    18    9   10 1
    19    9   18 1
    20   10   11 1
    21   11   16 ar
    22   11   12 ar
    23   12   13 ar
    24   12   42 1
    25   13   14 ar
    26   13   43 1
    27   14   15 ar
    28   14   17 1
    29   15   16 ar
    30   15   44 1
    31   16   45 1
    32   17   46 1
    33   18   19 1
    34   18   47 1
    35   18   48 1
    36   19   24 ar
    37   19   20 ar
    38   20   21 ar
    39   20   49 1
    40   21   22 ar
    41   21   50 1
    42   22   23 ar
    43   22   25 1
    44   23   24 ar
    45   23   51 1
    46   24   52 1
    47   25   26 1
    48   26   27 1
    49   26   53 1
    50   26   54 1
    51   27   28 1
    52   27   55 1
    53   27   56 1
    54   28   34 1
    55   28   29 1
    56   28   70 1
    57   29   30 1
    58   29   57 1
    59   29   58 1
    60   30   31 1
    61   30   59 1
    62   30   60 1
    63   31   32 1
    64   31   61 1
    65   31   62 1
    66   32   33 1
    67   32   63 1
    68   32   64 1
    69   33   34 1
    70   33   65 1
    71   33   66 1
    72   34   67 1
    73   34   68 1
    74   35   69 1
