@<TRIPOS>MOLECULE
CHEMBL85650
   64    67     0     0     0
SMALL
USER_CHARGES

@<TRIPOS>ATOM
      1 C1          0.1182    1.7196    0.0851 C.3       1 <0>        -0.1473
      2 C2          0.2455    0.1954    0.1222 C.3       1 <0>        -0.1010
      3 C3         -1.1495   -0.4326    0.1417 C.3       1 <0>        -0.1462
      4 C4          1.0031   -0.2835   -1.1178 C.3       1 <0>        -0.1060
      5 C5          2.4387    0.2438   -1.0736 C.3       1 <0>        -0.1054
      6 H1          2.4332    1.3283   -0.9650 H         1 <0>         0.1325
      7 C6          3.1826   -0.1510   -2.3603 C.3       1 <0>         0.1439
      8 H2          4.2353    0.1169   -2.2696 H         1 <0>         0.0910
      9 O1          3.0642   -1.5523   -2.5529 O.3       1 <0>        -0.3099
     10 C7          3.5139   -2.4426   -1.6376 C.ar      1 <0>         0.1198
     11 C8          3.8226   -3.7255   -2.0837 C.ar      1 <0>        -0.1135
     12 C9          4.2717   -4.6874   -1.2026 C.ar      1 <0>        -0.1092
     13 C10         4.4201   -4.3869    0.1435 C.ar      1 <0>         0.0978
     14 C11         4.1212   -3.1128    0.5979 C.ar      1 <0>        -0.0916
     15 C12         3.6766   -2.1420   -0.2899 C.ar      1 <0>        -0.1390
     16 S1          3.3367   -0.5151    0.3164 S.3       1 <0>        -0.0959
     17 O2          4.8560   -5.3378    1.0123 O.3       1 <0>        -0.4922
     18 C13         2.5776    0.5739   -3.5349 C.ar      1 <0>        -0.1007
     19 C14         1.4067    0.1086   -4.1043 C.ar      1 <0>        -0.0470
     20 C15         0.8502    0.7710   -5.1813 C.ar      1 <0>        -0.1418
     21 C16         1.4671    1.9042   -5.6913 C.ar      1 <0>         0.1228
     22 C17         2.6416    2.3692   -5.1179 C.ar      1 <0>        -0.2011
     23 C18         3.1912    1.7063   -4.0377 C.ar      1 <0>        -0.0593
     24 O3          0.9219    2.5573   -6.7510 O.3       1 <0>        -0.3271
     25 C19         1.6113    3.7166   -7.2232 C.3       1 <0>         0.0249
     26 C20         0.8533    4.3121   -8.4113 C.3       1 <0>        -0.0010
     27 N1         -0.4712    4.7678   -7.9685 N.4       1 <0>        -0.3842
     28 C21        -1.2550    5.1945   -9.1338 C.3       1 <0>        -0.0072
     29 C22        -2.6633    5.5937   -8.6877 C.3       1 <0>        -0.1467
     30 C23        -2.5673    6.7472   -7.6849 C.3       1 <0>        -0.1391
     31 C24        -1.6863    6.3161   -6.5088 C.3       1 <0>        -0.1454
     32 C25        -0.3142    5.8902   -7.0357 C.3       1 <0>        -0.0131
     33 H3          1.1121    2.1670    0.0712 H         1 <0>         0.0509
     34 H4         -0.4266    2.0170   -0.8110 H         1 <0>         0.0512
     35 H5         -0.4215    2.0608    0.9685 H         1 <0>         0.0590
     36 H6          0.7903   -0.1020    1.0182 H         1 <0>         0.0850
     37 H7         -1.6943   -0.1353   -0.7544 H         1 <0>         0.0518
     38 H8         -1.0588   -1.5185    0.1681 H         1 <0>         0.0560
     39 H9         -1.6893   -0.0915    1.0251 H         1 <0>         0.0588
     40 H10         1.0168   -1.3732   -1.1369 H         1 <0>         0.0721
     41 H11         0.5065    0.0894   -2.0135 H         1 <0>         0.0790
     42 H12         3.7096   -3.9696   -3.1297 H         1 <0>         0.1395
     43 H13         4.5083   -5.6780   -1.5621 H         1 <0>         0.1416
     44 H14         4.2345   -2.8738    1.6451 H         1 <0>         0.1390
     45 H15         5.8170   -5.3648    1.1162 H         1 <0>         0.3938
     46 H16         0.9269   -0.7736   -3.7069 H         1 <0>         0.1424
     47 H17        -0.0640    0.4068   -5.6262 H         1 <0>         0.1365
     48 H18         3.1237    3.2512   -5.5131 H         1 <0>         0.1317
     49 H19         4.1032    2.0704   -3.5881 H         1 <0>         0.1347
     50 H20         1.6709    4.4547   -6.4233 H         1 <0>         0.0870
     51 H21         2.6175    3.4384   -7.5366 H         1 <0>         0.1103
     52 H22         1.4128    5.1571   -8.8126 H         1 <0>         0.1494
     53 H23         0.7365    3.5533   -9.1850 H         1 <0>         0.1429
     54 H24        -0.7683    6.0480   -9.6058 H         1 <0>         0.1293
     55 H25        -1.3197    4.3736   -9.8480 H         1 <0>         0.1312
     56 H26        -3.2430    5.9119   -9.5541 H         1 <0>         0.1133
     57 H27        -3.1510    4.7408   -8.2158 H         1 <0>         0.0880
     58 H28        -2.1261    7.6172   -8.1712 H         1 <0>         0.0822
     59 H29        -3.5638    6.9977   -7.3211 H         1 <0>         0.0948
     60 H30        -1.5677    7.1507   -5.8178 H         1 <0>         0.1123
     61 H31        -2.1538    5.4782   -5.9917 H         1 <0>         0.0878
     62 H32         0.3157    5.5829   -6.2009 H         1 <0>         0.1270
     63 H33         0.1525    6.7288   -7.5523 H         1 <0>         0.1303
     64 H34        -0.9485    4.0099   -7.5039 H         1 <0>         0.4293
@<TRIPOS>BOND
     1    1    2 1
     2    1   33 1
     3    1   34 1
     4    1   35 1
     5    2    3 1
     6    2    4 1
     7    2   36 1
     8    3   37 1
     9    3   38 1
    10    3   39 1
    11    4    5 1
    12    4   40 1
    13    4   41 1
    14    5    6 1
    15    5   16 1
    16    5    7 1
    17    7    8 1
    18    7    9 1
    19    7   18 1
    20    9   10 1
    21   10   15 ar
    22   10   11 ar
    23   11   12 ar
    24   11   42 1
    25   12   13 ar
    26   12   43 1
    27   13   14 ar
    28   13   17 1
    29   14   15 ar
    30   14   44 1
    31   15   16 1
    32   17   45 1
    33   18   23 ar
    34   18   19 ar
    35   19   20 ar
    36   19   46 1
    37   20   21 ar
    38   20   47 1
    39   21   22 ar
    40   21   24 1
    41   22   23 ar
    42   22   48 1
    43   23   49 1
    44   24   25 1
    45   25   26 1
    46   25   50 1
    47   25   51 1
    48   26   27 1
    49   26   52 1
    50   26   53 1
    51   27   32 1
    52   27   28 1
    53   27   64 1
    54   28   29 1
    55   28   54 1
    56   28   55 1
    57   29   30 1
    58   29   56 1
    59   29   57 1
    60   30   31 1
    61   30   58 1
    62   30   59 1
    63   31   32 1
    64   31   60 1
    65   31   61 1
    66   32   62 1
    67   32   63 1
