@<TRIPOS>MOLECULE
CHEMBL176509
   67    71     0     0     0
SMALL
USER_CHARGES

@<TRIPOS>ATOM
      1 C1         -3.2999    1.0933   -2.5361 C.ar      1 <0>        -0.0810
      2 C2         -3.1969    2.1333   -3.4313 C.ar      1 <0>        -0.1502
      3 C3         -1.9842    2.7932   -3.5982 C.ar      1 <0>         0.1174
      4 C4         -0.8691    2.4065   -2.8629 C.ar      1 <0>        -0.1459
      5 C5         -0.9599    1.3676   -1.9651 C.ar      1 <0>        -0.0676
      6 C6         -2.1795    0.6995   -1.7919 C.ar      1 <0>        -0.0933
      7 C7         -2.2829   -0.4081   -0.8364 C.2       1 <0>        -0.0020
      8 C8         -1.5728   -1.5521   -1.0489 C.2       1 <0>        -0.1466
      9 C9         -1.7277   -2.6857   -0.1086 C.ar      1 <0>        -0.0466
     10 C10        -0.7997   -3.7249   -0.0895 C.ar      1 <0>        -0.0868
     11 C11        -0.9532   -4.7629    0.8059 C.ar      1 <0>        -0.1438
     12 C12        -2.0277   -4.7702    1.6856 C.ar      1 <0>         0.1176
     13 C13        -2.9572   -3.7386    1.6634 C.ar      1 <0>        -0.1382
     14 C14        -2.8148   -2.7028    0.7651 C.ar      1 <0>        -0.0542
     15 C15        -3.8409   -1.6023    0.7027 C.3       1 <0>        -0.0807
     16 C16        -3.1668   -0.2694    0.3731 C.3       1 <0>        -0.0849
     17 O1         -2.1706   -5.7909    2.5711 O.3       1 <0>        -0.4988
     18 C17        -0.6644   -1.6596   -2.1982 C.2       1 <0>         0.4490
     19 O2          0.3479   -0.9848   -2.2391 O.2       1 <0>        -0.4310
     20 C18        -0.9790   -2.5858   -3.3035 C.ar      1 <0>        -0.1816
     21 C19        -2.2035   -3.2598   -3.3261 C.ar      1 <0>        -0.0199
     22 C20        -2.4932   -4.1226   -4.3592 C.ar      1 <0>        -0.1535
     23 C21        -1.5700   -4.3238   -5.3790 C.ar      1 <0>         0.1457
     24 C22        -0.3509   -3.6558   -5.3601 C.ar      1 <0>        -0.2160
     25 C23        -0.0557   -2.7870   -4.3337 C.ar      1 <0>        -0.0190
     26 O3         -1.8595   -5.1751   -6.3955 O.3       1 <0>        -0.3239
     27 C24        -0.8663   -5.3353   -7.4103 C.3       1 <0>         0.0226
     28 C25        -1.3680   -6.3255   -8.4632 C.3       1 <0>        -0.0009
     29 N1         -2.5371   -5.7600   -9.1496 N.4       1 <0>        -0.3845
     30 C26        -2.1333   -4.5608   -9.8935 C.3       1 <0>        -0.0142
     31 C27        -3.3619   -3.9217  -10.5442 C.3       1 <0>        -0.1454
     32 C28        -4.0055   -4.9269  -11.5037 C.3       1 <0>        -0.1390
     33 C29        -4.3550   -6.2026  -10.7319 C.3       1 <0>        -0.1467
     34 C30        -3.0896   -6.7571  -10.0742 C.3       1 <0>        -0.0070
     35 O4         -1.8886    3.8183   -4.4826 O.3       1 <0>        -0.5002
     36 H1         -4.2433    0.5845   -2.4040 H         1 <0>         0.1297
     37 H2         -4.0595    2.4375   -4.0056 H         1 <0>         0.1319
     38 H3          0.0702    2.9224   -2.9970 H         1 <0>         0.1326
     39 H4         -0.0929    1.0677   -1.3951 H         1 <0>         0.1379
     40 H5          0.0362   -3.7179   -0.7733 H         1 <0>         0.1228
     41 H6         -0.2370   -5.5711    0.8227 H         1 <0>         0.1322
     42 H7         -3.7912   -3.7480    2.3495 H         1 <0>         0.1351
     43 H8         -4.5767   -1.8382   -0.0660 H         1 <0>         0.0841
     44 H9         -4.3432   -1.5223    1.6668 H         1 <0>         0.0894
     45 H10        -2.5644    0.0519    1.2228 H         1 <0>         0.0928
     46 H11        -3.9328    0.4799    0.1736 H         1 <0>         0.0897
     47 H12        -1.7307   -5.6405    3.4190 H         1 <0>         0.3959
     48 H13        -2.9211   -3.1043   -2.5341 H         1 <0>         0.1425
     49 H14        -3.4389   -4.6440   -4.3773 H         1 <0>         0.1400
     50 H15         0.3638   -3.8155   -6.1539 H         1 <0>         0.1343
     51 H16         0.8898   -2.2651   -4.3221 H         1 <0>         0.1422
     52 H17        -0.6698   -4.3723   -7.8817 H         1 <0>         0.0890
     53 H18         0.0523   -5.7150   -6.9630 H         1 <0>         0.1122
     54 H19        -0.5774   -6.5157   -9.1891 H         1 <0>         0.1502
     55 H20        -1.6485   -7.2605   -7.9782 H         1 <0>         0.1437
     56 H21        -1.6725   -3.8477   -9.2099 H         1 <0>         0.1274
     57 H22        -1.4160   -4.8375  -10.6662 H         1 <0>         0.1308
     58 H23        -4.0798   -3.6443   -9.7723 H         1 <0>         0.0879
     59 H24        -3.0597   -3.0325  -11.0975 H         1 <0>         0.1126
     60 H25        -4.9132   -4.4968  -11.9272 H         1 <0>         0.0949
     61 H26        -3.3059   -5.1656  -12.3047 H         1 <0>         0.0822
     62 H27        -5.0935   -5.9725   -9.9639 H         1 <0>         0.0880
     63 H28        -4.7627   -6.9437  -11.4194 H         1 <0>         0.1133
     64 H29        -2.3519   -6.9870  -10.8431 H         1 <0>         0.1294
     65 H30        -3.3348   -7.6656   -9.5241 H         1 <0>         0.1313
     66 H31        -2.0835    4.6857   -4.1020 H         1 <0>         0.3958
     67 H32        -3.2379   -5.5103   -8.4679 H         1 <0>         0.4291
@<TRIPOS>BOND
     1    1    6 ar
     2    1    2 ar
     3    1   36 1
     4    2    3 ar
     5    2   37 1
     6    3    4 ar
     7    3   35 1
     8    4    5 ar
     9    4   38 1
    10    5    6 ar
    11    5   39 1
    12    6    7 1
    13    7   16 1
    14    7    8 2
    15    8    9 1
    16    8   18 1
    17    9   14 ar
    18    9   10 ar
    19   10   11 ar
    20   10   40 1
    21   11   12 ar
    22   11   41 1
    23   12   13 ar
    24   12   17 1
    25   13   14 ar
    26   13   42 1
    27   14   15 1
    28   15   16 1
    29   15   43 1
    30   15   44 1
    31   16   45 1
    32   16   46 1
    33   17   47 1
    34   18   19 2
    35   18   20 1
    36   20   25 ar
    37   20   21 ar
    38   21   22 ar
    39   21   48 1
    40   22   23 ar
    41   22   49 1
    42   23   24 ar
    43   23   26 1
    44   24   25 ar
    45   24   50 1
    46   25   51 1
    47   26   27 1
    48   27   28 1
    49   27   52 1
    50   27   53 1
    51   28   29 1
    52   28   54 1
    53   28   55 1
    54   29   34 1
    55   29   30 1
    56   29   67 1
    57   30   31 1
    58   30   56 1
    59   30   57 1
    60   31   32 1
    61   31   58 1
    62   31   59 1
    63   32   33 1
    64   32   60 1
    65   32   61 1
    66   33   34 1
    67   33   62 1
    68   33   63 1
    69   34   64 1
    70   34   65 1
    71   35   66 1
