@<TRIPOS>MOLECULE
CHEMBL58330
   67    71     0     0     0
SMALL
USER_CHARGES

@<TRIPOS>ATOM
      1 C1         -0.0184    1.5028    0.0103 C.3       1 <0>        -0.1187
      2 C2          0.0021   -0.0041    0.0020 C.ar      1 <0>        -0.1001
      3 C3          0.0057   -0.6863   -1.1964 C.ar      1 <0>        -0.0530
      4 C4          0.0246   -2.0801   -1.2032 C.ar      1 <0>        -0.1111
      5 C5          0.0398   -2.7803    0.0026 C.ar      1 <0>        -0.0878
      6 C6          0.0361   -2.0927    1.1974 C.ar      1 <0>        -0.1314
      7 C7          0.0230   -0.7039    1.2009 C.ar      1 <0>         0.1544
      8 O1          0.0249   -0.0290    2.3798 O.3       1 <0>        -0.4877
      9 C8          0.0281   -2.8168   -2.4901 C.ar      1 <0>         0.2461
     10 C9          0.0181   -2.1095   -3.6869 C.ar      1 <0>        -0.1747
     11 C10         0.0220   -2.8148   -4.8927 C.ar      1 <0>         0.1343
     12 C11         0.0357   -4.2098   -4.8451 C.ar      1 <0>        -0.2179
     13 C12         0.0451   -4.8451   -3.6096 C.ar      1 <0>         0.4611
     14 N1          0.0461   -4.1448   -2.4865 N.ar      1 <0>        -0.5206
     15 N2          0.0583   -6.2342   -3.5522 N.pl3     1 <0>        -0.5810
     16 C13         0.0623   -7.0184   -4.7897 C.3       1 <0>         0.1144
     17 C14         1.5062   -7.2778   -5.2243 C.3       1 <0>        -0.0985
     18 C15         1.5104   -8.0845   -6.4972 C.ar      1 <0>        -0.0970
     19 C16         1.5178   -9.4656   -6.4402 C.ar      1 <0>        -0.1126
     20 C17         1.5216  -10.2056   -7.6078 C.ar      1 <0>        -0.1134
     21 C18         1.5176   -9.5644   -8.8324 C.ar      1 <0>        -0.1121
     22 C19         1.5092   -8.1833   -8.8895 C.ar      1 <0>        -0.1142
     23 C20         1.5010   -7.4433   -7.7219 C.ar      1 <0>        -0.1155
     24 C21         0.0682   -6.9136   -2.2544 C.3       1 <0>         0.1367
     25 C22        -1.3492   -7.1600   -1.8055 C.ar      1 <0>        -0.1339
     26 C23        -2.0096   -6.2100   -1.0491 C.ar      1 <0>        -0.1166
     27 C24        -3.3098   -6.4360   -0.6374 C.ar      1 <0>        -0.1096
     28 C25        -3.9495   -7.6118   -0.9825 C.ar      1 <0>        -0.0984
     29 C26        -3.2894   -8.5614   -1.7396 C.ar      1 <0>        -0.1082
     30 C27        -1.9907   -8.3335   -2.1550 C.ar      1 <0>        -0.0924
     31 C28         0.0112   -2.0985   -6.1924 C.ar      1 <0>        -0.1008
     32 C29         0.0095   -2.8166   -7.3864 C.ar      1 <0>        -0.0784
     33 C30        -0.0005   -2.1454   -8.5924 C.ar      1 <0>        -0.1193
     34 C31        -0.0083   -0.7624   -8.6170 C.ar      1 <0>        -0.0776
     35 C32        -0.0061   -0.0446   -7.4346 C.ar      1 <0>        -0.1189
     36 C33        -0.0029   -0.7056   -6.2230 C.ar      1 <0>        -0.0782
     37 H1          1.0042    1.8801    0.0026 H         1 <0>         0.0839
     38 H2         -0.5455    1.8639   -0.8728 H         1 <0>         0.0752
     39 H3         -0.5286    1.8543    0.9071 H         1 <0>         0.0778
     40 H4         -0.0065   -0.1413   -2.1287 H         1 <0>         0.1441
     41 H5          0.0541   -3.8602    0.0004 H         1 <0>         0.1203
     42 H6          0.0478   -2.6344    2.1316 H         1 <0>         0.1474
     43 H7         -0.8578    0.1543    2.7295 H         1 <0>         0.4044
     44 H8          0.0072   -1.0295   -3.6845 H         1 <0>         0.1776
     45 H9          0.0387   -4.7880   -5.7573 H         1 <0>         0.1780
     46 H10        -0.4421   -7.9694   -4.6188 H         1 <0>         0.1070
     47 H11        -0.4588   -6.4660   -5.5716 H         1 <0>         0.0970
     48 H12         2.0106   -6.3268   -5.3952 H         1 <0>         0.0803
     49 H13         2.0274   -7.8301   -4.4424 H         1 <0>         0.0841
     50 H14         1.5210   -9.9666   -5.4834 H         1 <0>         0.1220
     51 H15         1.5282  -11.2847   -7.5632 H         1 <0>         0.1265
     52 H16         1.5213  -10.1425   -9.7447 H         1 <0>         0.1265
     53 H17         1.5063   -7.6823   -9.8463 H         1 <0>         0.1261
     54 H18         1.4907   -6.3643   -7.7664 H         1 <0>         0.1195
     55 H19         0.5908   -7.8657   -2.3467 H         1 <0>         0.1233
     56 H20         0.5781   -6.2889   -1.5211 H         1 <0>         0.0833
     57 H21        -1.5098   -5.2914   -0.7796 H         1 <0>         0.1023
     58 H22        -3.8255   -5.6941   -0.0459 H         1 <0>         0.1298
     59 H23        -4.9650   -7.7887   -0.6602 H         1 <0>         0.1326
     60 H24        -3.7891   -9.4802   -2.0089 H         1 <0>         0.1333
     61 H25        -1.4762   -9.0738   -2.7497 H         1 <0>         0.1286
     62 H26         0.0163   -3.8965   -7.3684 H         1 <0>         0.1293
     63 H27        -0.0018   -2.7010   -9.5185 H         1 <0>         0.1368
     64 H28        -0.0157   -0.2412   -9.5628 H         1 <0>         0.1361
     65 H29        -0.0115    1.0351   -7.4596 H         1 <0>         0.1375
     66 H30        -0.0061   -0.1442   -5.3004 H         1 <0>         0.1317
     67 H31         0.0568   -4.6142   -1.6377 H         1 <0>         0.4301
@<TRIPOS>BOND
     1    1    2 1
     2    1   37 1
     3    1   38 1
     4    1   39 1
     5    2    7 ar
     6    2    3 ar
     7    3    4 ar
     8    3   40 1
     9    4    5 ar
    10    4    9 1
    11    5    6 ar
    12    5   41 1
    13    6    7 ar
    14    6   42 1
    15    7    8 1
    16    8   43 1
    17    9   14 ar
    18    9   10 ar
    19   10   11 ar
    20   10   44 1
    21   11   12 ar
    22   11   31 1
    23   12   13 ar
    24   12   45 1
    25   13   14 ar
    26   13   15 1
    27   14   67 1
    28   15   16 1
    29   15   24 1
    30   16   17 1
    31   16   46 1
    32   16   47 1
    33   17   18 1
    34   17   48 1
    35   17   49 1
    36   18   23 ar
    37   18   19 ar
    38   19   20 ar
    39   19   50 1
    40   20   21 ar
    41   20   51 1
    42   21   22 ar
    43   21   52 1
    44   22   23 ar
    45   22   53 1
    46   23   54 1
    47   24   25 1
    48   24   55 1
    49   24   56 1
    50   25   30 ar
    51   25   26 ar
    52   26   27 ar
    53   26   57 1
    54   27   28 ar
    55   27   58 1
    56   28   29 ar
    57   28   59 1
    58   29   30 ar
    59   29   60 1
    60   30   61 1
    61   31   36 ar
    62   31   32 ar
    63   32   33 ar
    64   32   62 1
    65   33   34 ar
    66   33   63 1
    67   34   35 ar
    68   34   64 1
    69   35   36 ar
    70   35   65 1
    71   36   66 1
