@<TRIPOS>MOLECULE
CHEMBL393179
   79    83     0     0     0
SMALL
USER_CHARGES

@<TRIPOS>ATOM
      1 C1         -0.0522    1.7216   -0.3816 C.3       1 <0>        -0.1664
      2 C2          0.0211    0.1935   -0.3645 C.3       1 <0>         0.1433
      3 H1         -0.9851   -0.2177   -0.2832 H         1 <0>         0.0883
      4 C3          0.8572   -0.2636    0.8325 C.3       1 <0>        -0.1236
      5 C4          0.8276   -1.7907    0.9219 C.3       1 <0>        -0.0758
      6 C5          1.6511   -2.2410    2.1010 C.ar      1 <0>        -0.0951
      7 C6          2.9996   -2.5015    1.9417 C.ar      1 <0>        -0.1006
      8 C7          3.7566   -2.9148    3.0209 C.ar      1 <0>        -0.1425
      9 C8          3.1627   -3.0679    4.2653 C.ar      1 <0>         0.1032
     10 C9          1.8096   -2.8054    4.4226 C.ar      1 <0>        -0.1426
     11 C10         1.0581   -2.3873    3.3414 C.ar      1 <0>        -0.1010
     12 O1          3.9052   -3.4748    5.3284 O.3       1 <0>        -0.5007
     13 N1          0.6432   -0.2794   -1.6037 N.am      1 <0>        -0.7285
     14 C11        -0.1070   -0.4567   -2.7093 C.2       1 <0>         0.5133
     15 O2         -1.2970   -0.2247   -2.6783 O.2       1 <0>        -0.5261
     16 C12         0.5329   -0.9432   -3.9840 C.3       1 <0>        -0.0701
     17 C13        -0.5152   -1.0563   -5.0609 C.2       1 <0>        -0.1417
     18 C14        -1.3331   -2.2309   -5.3589 C.ar      1 <0>        -0.0489
     19 C15        -1.4180   -3.5143   -4.8100 C.ar      1 <0>        -0.0946
     20 C16        -2.3186   -4.4206   -5.3315 C.ar      1 <0>         0.0851
     21 C17        -3.1390   -4.0610   -6.3980 C.ar      1 <0>        -0.1795
     22 C18        -3.0641   -2.8003   -6.9471 C.ar      1 <0>        -0.0822
     23 C19        -2.1637   -1.8711   -6.4366 C.ar      1 <0>         0.0848
     24 N2         -1.8669   -0.5652   -6.7675 N.pl3     1 <0>        -0.5838
     25 H2         -2.2913   -0.0594   -7.4781 H         1 <0>         0.4201
     26 C20        -0.8833   -0.0860   -5.9339 C.2       1 <0>         0.1608
     27 C21        -0.3118    1.2772   -5.9845 C.ar      1 <0>        -0.0504
     28 C22        -0.1137    1.9981   -4.8062 C.ar      1 <0>        -0.0918
     29 C23         0.4202    3.2691   -4.8603 C.ar      1 <0>        -0.1170
     30 C24         0.7590    3.8291   -6.0792 C.ar      1 <0>        -0.1033
     31 C25         0.5647    3.1198   -7.2511 C.ar      1 <0>        -0.1166
     32 C26         0.0369    1.8457   -7.2103 C.ar      1 <0>        -0.1028
     33 O3         -2.4051   -5.6702   -4.8020 O.3       1 <0>        -0.3294
     34 C27        -3.3581   -6.5588   -5.3888 C.3       1 <0>         0.0275
     35 C28        -3.3111   -7.9066   -4.6661 C.3       1 <0>        -0.0010
     36 N3         -3.7183   -7.7260   -3.2662 N.4       1 <0>        -0.3839
     37 C29        -3.5243   -8.9842   -2.5356 C.3       1 <0>        -0.0069
     38 C30        -3.8701   -8.7796   -1.0591 C.3       1 <0>        -0.1468
     39 C31        -5.3316   -8.3380   -0.9393 C.3       1 <0>        -0.1385
     40 C32        -5.5395   -7.0657   -1.7658 C.3       1 <0>        -0.1457
     41 C33        -5.1318   -7.3338   -3.2161 C.3       1 <0>        -0.0129
     42 H3          0.9540    2.1328   -0.4630 H         1 <0>         0.0590
     43 H4         -0.6479    2.0473   -1.2344 H         1 <0>         0.0609
     44 H5         -0.5151    2.0735    0.5404 H         1 <0>         0.0671
     45 H6          1.8862    0.0731    0.7068 H         1 <0>         0.0727
     46 H7          0.4449    0.1619    1.7474 H         1 <0>         0.0823
     47 H8         -0.2014   -2.1274    1.0477 H         1 <0>         0.0715
     48 H9          1.2399   -2.2163    0.0071 H         1 <0>         0.0722
     49 H10         3.4615   -2.3822    0.9728 H         1 <0>         0.1253
     50 H11         4.8098   -3.1189    2.8959 H         1 <0>         0.1293
     51 H12         1.3450   -2.9238    5.3903 H         1 <0>         0.1290
     52 H13         0.0056   -2.1786    3.4643 H         1 <0>         0.1254
     53 H14         4.3061   -2.7506    5.8284 H         1 <0>         0.3936
     54 H15         1.5950   -0.4650   -1.6285 H         1 <0>         0.4001
     55 H16         1.3012   -0.2364   -4.2976 H         1 <0>         0.1033
     56 H17         0.9856   -1.9200   -3.8136 H         1 <0>         0.1015
     57 H18        -0.7822   -3.7946   -3.9832 H         1 <0>         0.1289
     58 H19        -3.8404   -4.7779   -6.7986 H         1 <0>         0.1293
     59 H20        -3.7047   -2.5329   -7.7744 H         1 <0>         0.1292
     60 H21        -0.3781    1.5622   -3.8541 H         1 <0>         0.1308
     61 H22         0.5737    3.8283   -3.9491 H         1 <0>         0.1284
     62 H23         1.1766    4.8244   -6.1162 H         1 <0>         0.1285
     63 H24         0.8309    3.5627   -8.1995 H         1 <0>         0.1294
     64 H25        -0.1101    1.2913   -8.1254 H         1 <0>         0.1227
     65 H26        -4.3570   -6.1322   -5.2975 H         1 <0>         0.0841
     66 H27        -3.1195   -6.7031   -6.4425 H         1 <0>         0.1075
     67 H28        -3.9905   -8.6049   -5.1549 H         1 <0>         0.1474
     68 H29        -2.2961   -8.3024   -4.7011 H         1 <0>         0.1418
     69 H30        -4.1727   -9.7523   -2.9572 H         1 <0>         0.1286
     70 H31        -2.4845   -9.2989   -2.6245 H         1 <0>         0.1306
     71 H32        -3.7272   -9.7154   -0.5188 H         1 <0>         0.1125
     72 H33        -3.2221   -8.0119   -0.6365 H         1 <0>         0.0879
     73 H34        -5.9828   -9.1272   -1.3150 H         1 <0>         0.0817
     74 H35        -5.5669   -8.1363    0.1057 H         1 <0>         0.0941
     75 H36        -6.5898   -6.7763   -1.7305 H         1 <0>         0.1118
     76 H37        -4.9261   -6.2623   -1.3578 H         1 <0>         0.0882
     77 H38        -5.2788   -6.4299   -3.8074 H         1 <0>         0.1282
     78 H39        -5.7460   -8.1370   -3.6231 H         1 <0>         0.1295
     79 H40        -3.1546   -7.0037   -2.8436 H         1 <0>         0.4300
@<TRIPOS>BOND
     1    1    2 1
     2    1   42 1
     3    1   43 1
     4    1   44 1
     5    2    3 1
     6    2    4 1
     7    2   13 1
     8    4    5 1
     9    4   45 1
    10    4   46 1
    11    5    6 1
    12    5   47 1
    13    5   48 1
    14    6   11 ar
    15    6    7 ar
    16    7    8 ar
    17    7   49 1
    18    8    9 ar
    19    8   50 1
    20    9   10 ar
    21    9   12 1
    22   10   11 ar
    23   10   51 1
    24   11   52 1
    25   12   53 1
    26   13   14 am
    27   13   54 1
    28   14   15 2
    29   14   16 1
    30   16   17 1
    31   16   55 1
    32   16   56 1
    33   17   26 2
    34   17   18 1
    35   18   23 ar
    36   18   19 ar
    37   19   20 ar
    38   19   57 1
    39   20   21 ar
    40   20   33 1
    41   21   22 ar
    42   21   58 1
    43   22   23 ar
    44   22   59 1
    45   23   24 1
    46   24   25 1
    47   24   26 1
    48   26   27 1
    49   27   32 ar
    50   27   28 ar
    51   28   29 ar
    52   28   60 1
    53   29   30 ar
    54   29   61 1
    55   30   31 ar
    56   30   62 1
    57   31   32 ar
    58   31   63 1
    59   32   64 1
    60   33   34 1
    61   34   35 1
    62   34   65 1
    63   34   66 1
    64   35   36 1
    65   35   67 1
    66   35   68 1
    67   36   41 1
    68   36   37 1
    69   36   79 1
    70   37   38 1
    71   37   69 1
    72   37   70 1
    73   38   39 1
    74   38   71 1
    75   38   72 1
    76   39   40 1
    77   39   73 1
    78   39   74 1
    79   40   41 1
    80   40   75 1
    81   40   76 1
    82   41   77 1
    83   41   78 1
