@<TRIPOS>MOLECULE
CHEMBL285483
   64    68     0     0     0
SMALL
USER_CHARGES

@<TRIPOS>ATOM
      1 C1         -2.9434   -4.9650   -2.3766 C.ar      1 <0>        -0.0701
      2 C2         -3.1399   -5.8779   -3.3896 C.ar      1 <0>        -0.1460
      3 C3         -3.3604   -5.4394   -4.6895 C.ar      1 <0>         0.1210
      4 C4         -3.3841   -4.0795   -4.9733 C.ar      1 <0>        -0.1443
      5 C5         -3.1889   -3.1601   -3.9659 C.ar      1 <0>        -0.0517
      6 C6         -2.9665   -3.5968   -2.6577 C.ar      1 <0>        -0.0512
      7 C7         -2.7567   -2.6141   -1.5740 C.2       1 <0>        -0.1312
      8 C8         -3.7999   -2.3710   -0.5498 C.2       1 <0>         0.4259
      9 O1         -4.7581   -3.1109   -0.4168 O.2       1 <0>        -0.4232
     10 C9         -3.6088   -1.1810    0.2986 C.ar      1 <0>        -0.2277
     11 C10        -4.6358   -0.6999    1.1127 C.ar      1 <0>        -0.0087
     12 C11        -4.4273    0.4089    1.8815 C.ar      1 <0>        -0.1674
     13 C12        -3.1951    1.0610    1.8552 C.ar      1 <0>         0.1803
     14 C13        -2.1664    0.5944    1.0550 C.ar      1 <0>        -0.1729
     15 C14        -2.3589   -0.5349    0.2689 C.ar      1 <0>         0.1585
     16 O2         -1.3606   -1.0062   -0.5022 O.3       1 <0>        -0.2088
     17 C15        -1.5803   -1.8975   -1.4803 C.2       1 <0>         0.0604
     18 C16        -0.5321   -2.1148   -2.4935 C.2       1 <0>         0.4479
     19 O3         -0.7608   -2.8089   -3.4660 O.2       1 <0>        -0.3876
     20 C17         0.7937   -1.4909   -2.3283 C.ar      1 <0>        -0.1879
     21 C18         1.1210   -0.8453   -1.1310 C.ar      1 <0>        -0.0256
     22 C19         2.3598   -0.2648   -0.9810 C.ar      1 <0>        -0.1545
     23 C20         3.2856   -0.3191   -2.0173 C.ar      1 <0>         0.1513
     24 C21         2.9644   -0.9594   -3.2094 C.ar      1 <0>        -0.2174
     25 C22         1.7301   -1.5477   -3.3662 C.ar      1 <0>        -0.0106
     26 O4          4.5057    0.2546   -1.8651 O.3       1 <0>        -0.3238
     27 C23         5.4085    0.1619   -2.9689 C.3       1 <0>         0.0225
     28 C24         6.7222    0.8610   -2.6135 C.3       1 <0>        -0.0009
     29 N1          7.3564    0.1670   -1.4848 N.4       1 <0>        -0.3845
     30 C25         8.5354    0.9239   -1.0470 C.3       1 <0>        -0.0071
     31 C26         9.1530    0.2489    0.1796 C.3       1 <0>        -0.1466
     32 C27         9.5680   -1.1793   -0.1853 C.3       1 <0>        -0.1393
     33 C28         8.3454   -1.9372   -0.7108 C.3       1 <0>        -0.1454
     34 C29         7.7577   -1.1812   -1.9043 C.3       1 <0>        -0.0136
     35 O5         -3.0025    2.1644    2.6215 O.3       1 <0>        -0.4897
     36 O6         -3.5527   -6.3425   -5.6854 O.3       1 <0>        -0.4996
     37 H1         -2.7762   -5.3066   -1.3658 H         1 <0>         0.1253
     38 H2         -3.1222   -6.9358   -3.1731 H         1 <0>         0.1328
     39 H3         -3.5554   -3.7426   -5.9850 H         1 <0>         0.1318
     40 H4         -3.2071   -2.1032   -4.1874 H         1 <0>         0.1211
     41 H5         -5.5915   -1.2025    1.1340 H         1 <0>         0.1509
     42 H6         -5.2201    0.7828    2.5123 H         1 <0>         0.1477
     43 H7         -1.2161    1.1075    1.0415 H         1 <0>         0.1510
     44 H8          0.4025   -0.8023   -0.3258 H         1 <0>         0.1614
     45 H9          2.6132    0.2341   -0.0572 H         1 <0>         0.1423
     46 H10         3.6862   -0.9986   -4.0119 H         1 <0>         0.1368
     47 H11         1.4832   -2.0486   -4.2906 H         1 <0>         0.1455
     48 H12         5.6038   -0.8871   -3.1915 H         1 <0>         0.0900
     49 H13         4.9659    0.6421   -3.8416 H         1 <0>         0.1131
     50 H14         7.3899    0.8395   -3.4748 H         1 <0>         0.1506
     51 H15         6.5198    1.8956   -2.3365 H         1 <0>         0.1436
     52 H16         9.2684    0.9522   -1.8532 H         1 <0>         0.1295
     53 H17         8.2390    1.9410   -0.7907 H         1 <0>         0.1314
     54 H18        10.0292    0.8114    0.5020 H         1 <0>         0.1133
     55 H19         8.4209    0.2203    0.9866 H         1 <0>         0.0880
     56 H20        10.3375   -1.1495   -0.9567 H         1 <0>         0.0823
     57 H21         9.9566   -1.6833    0.6996 H         1 <0>         0.0949
     58 H22         8.6443   -2.9372   -1.0248 H         1 <0>         0.1126
     59 H23         7.5965   -2.0112    0.0777 H         1 <0>         0.0879
     60 H24         6.8871   -1.7181   -2.2810 H         1 <0>         0.1272
     61 H25         8.5072   -1.1080   -2.6923 H         1 <0>         0.1308
     62 H26        -2.6627    1.9742    3.5066 H         1 <0>         0.4044
     63 H27        -4.4783   -6.5875   -5.8207 H         1 <0>         0.3946
     64 H28         6.7002    0.0992   -0.7213 H         1 <0>         0.4292
@<TRIPOS>BOND
     1    1    6 ar
     2    1    2 ar
     3    1   37 1
     4    2    3 ar
     5    2   38 1
     6    3    4 ar
     7    3   36 1
     8    4    5 ar
     9    4   39 1
    10    5    6 ar
    11    5   40 1
    12    6    7 1
    13    7   17 2
    14    7    8 1
    15    8    9 2
    16    8   10 1
    17   10   15 ar
    18   10   11 ar
    19   11   12 ar
    20   11   41 1
    21   12   13 ar
    22   12   42 1
    23   13   14 ar
    24   13   35 1
    25   14   15 ar
    26   14   43 1
    27   15   16 1
    28   16   17 1
    29   17   18 1
    30   18   19 2
    31   18   20 1
    32   20   25 ar
    33   20   21 ar
    34   21   22 ar
    35   21   44 1
    36   22   23 ar
    37   22   45 1
    38   23   24 ar
    39   23   26 1
    40   24   25 ar
    41   24   46 1
    42   25   47 1
    43   26   27 1
    44   27   28 1
    45   27   48 1
    46   27   49 1
    47   28   29 1
    48   28   50 1
    49   28   51 1
    50   29   34 1
    51   29   30 1
    52   29   64 1
    53   30   31 1
    54   30   52 1
    55   30   53 1
    56   31   32 1
    57   31   54 1
    58   31   55 1
    59   32   33 1
    60   32   56 1
    61   32   57 1
    62   33   34 1
    63   33   58 1
    64   33   59 1
    65   34   60 1
    66   34   61 1
    67   35   62 1
    68   36   63 1
