@<TRIPOS>MOLECULE
CHEMBL93266
   38    40     0     0     0
SMALL
USER_CHARGES

@<TRIPOS>ATOM
      1 C1         -0.0167    1.3784    0.0096 C.ar      1 <0>        -0.0925
      2 C2          1.1695    2.0865    0.0021 C.ar      1 <0>        -0.1423
      3 C3          2.3802    1.4093   -0.0131 C.ar      1 <0>         0.1095
      4 C4          2.3963    0.0221   -0.0206 C.ar      1 <0>        -0.1416
      5 C5          1.2074   -0.6814   -0.0130 C.ar      1 <0>        -0.0883
      6 C6          0.0021   -0.0041    0.0020 C.ar      1 <0>        -0.0904
      7 C7         -1.2934   -0.7740    0.0107 C.3       1 <0>        -0.0193
      8 C8         -1.3847   -1.6180   -1.2595 C.3       1 <0>         0.1190
      9 N1         -2.4953   -2.5699   -1.0914 N.am      1 <0>        -0.5877
     10 C9         -2.3626   -3.5783   -0.0344 C.3       1 <0>         0.1330
     11 C10        -1.8404   -2.9299    1.2232 C.ar      1 <0>        -0.0784
     12 C11        -1.3436   -1.6450    1.2385 C.ar      1 <0>        -0.0738
     13 C12        -0.8651   -1.1082    2.4278 C.ar      1 <0>        -0.0873
     14 C13        -0.8892   -1.8458    3.5921 C.ar      1 <0>        -0.1388
     15 C14        -1.3963   -3.1369    3.5791 C.ar      1 <0>         0.1133
     16 C15        -1.8698   -3.6739    2.3935 C.ar      1 <0>        -0.1367
     17 O1         -1.4287   -3.8702    4.7228 O.3       1 <0>        -0.4974
     18 C16        -3.5891   -2.5173   -1.8771 C.2       1 <0>         0.4899
     19 O2         -3.6729   -1.6733   -2.7441 O.2       1 <0>        -0.4699
     20 C17        -4.7080   -3.5070   -1.6783 C.3       1 <0>         0.4518
     21 F1         -5.7249   -3.2536   -2.6050 F         1 <0>        -0.1487
     22 F2         -4.2207   -4.8052   -1.8639 F         1 <0>        -0.1649
     23 F3         -5.2171   -3.3810   -0.3813 F         1 <0>        -0.1644
     24 O3          3.5484    2.1036   -0.0209 O.3       1 <0>        -0.4995
     25 H1         -0.9594    1.9052    0.0259 H         1 <0>         0.1293
     26 H2          1.1543    3.1664    0.0076 H         1 <0>         0.1312
     27 H3          3.3375   -0.5074   -0.0328 H         1 <0>         0.1305
     28 H4          1.2194   -1.7613   -0.0189 H         1 <0>         0.1262
     29 H5         -2.1271   -0.0723    0.0347 H         1 <0>         0.1002
     30 H6         -1.5779   -0.9737   -2.1173 H         1 <0>         0.1100
     31 H7         -0.4520   -2.1620   -1.4087 H         1 <0>         0.0923
     32 H8         -3.3367   -4.0248    0.1652 H         1 <0>         0.1022
     33 H9         -1.6682   -4.3537   -0.3579 H         1 <0>         0.1019
     34 H10        -0.4701   -0.1031    2.4398 H         1 <0>         0.1292
     35 H11        -0.5143   -1.4201    4.5111 H         1 <0>         0.1317
     36 H12        -2.2650   -4.6789    2.3802 H         1 <0>         0.1341
     37 H13        -2.2439   -3.7678    5.2327 H         1 <0>         0.3940
     38 H14         3.8951    2.3001    0.8601 H         1 <0>         0.3928
@<TRIPOS>BOND
     1    1    6 ar
     2    1    2 ar
     3    1   25 1
     4    2    3 ar
     5    2   26 1
     6    3    4 ar
     7    3   24 1
     8    4    5 ar
     9    4   27 1
    10    5    6 ar
    11    5   28 1
    12    6    7 1
    13    7   12 1
    14    7    8 1
    15    7   29 1
    16    8    9 1
    17    8   30 1
    18    8   31 1
    19    9   10 1
    20    9   18 am
    21   10   11 1
    22   10   32 1
    23   10   33 1
    24   11   16 ar
    25   11   12 ar
    26   12   13 ar
    27   13   14 ar
    28   13   34 1
    29   14   15 ar
    30   14   35 1
    31   15   16 ar
    32   15   17 1
    33   16   36 1
    34   17   37 1
    35   18   19 2
    36   18   20 1
    37   20   21 1
    38   20   22 1
    39   20   23 1
    40   24   38 1
