@<TRIPOS>MOLECULE
CHEMBL123025
   60    64     0     0     0
SMALL
USER_CHARGES

@<TRIPOS>ATOM
      1 C1         -4.4960   -2.1926    0.2623 C.ar      1 <0>        -0.0770
      2 C2         -5.2897   -2.8686   -0.6441 C.ar      1 <0>        -0.1399
      3 C3         -5.0885   -4.2233   -0.8653 C.ar      1 <0>         0.1211
      4 C4         -4.0903   -4.8957   -0.1753 C.ar      1 <0>        -0.1465
      5 C5         -3.2993   -4.2152    0.7300 C.ar      1 <0>        -0.0866
      6 C6         -3.5019   -2.8651    0.9487 C.ar      1 <0>        -0.0859
      7 C7         -2.6372   -2.1250    1.9366 C.3       1 <0>        -0.0353
      8 H1         -3.1394   -1.2101    2.2510 H         1 <0>         0.1248
      9 C8         -1.2924   -1.7794    1.2883 C.3       1 <0>        -0.0393
     10 H2         -1.4588   -1.3798    0.2880 H         1 <0>         0.1469
     11 S1         -0.4709   -0.5362    2.3122 S.3       1 <0>        -0.0688
     12 C9         -0.4082   -1.2205    3.9320 C.ar      1 <0>        -0.1164
     13 C10         0.4954   -0.6209    4.8187 C.ar      1 <0>        -0.0656
     14 C11         0.6261   -1.0599    6.1163 C.ar      1 <0>        -0.1245
     15 C12        -0.1535   -2.1174    6.5626 C.ar      1 <0>         0.1345
     16 C13        -1.0434   -2.7184    5.6957 C.ar      1 <0>        -0.1154
     17 C14        -1.1760   -2.2832    4.3705 C.ar      1 <0>        -0.0754
     18 S2         -2.3229   -3.1729    3.3759 S.3       1 <0>        -0.0674
     19 O1         -0.0414   -2.5584    7.8441 O.3       1 <0>        -0.4934
     20 C15        -0.4359   -3.0165    1.2050 C.ar      1 <0>        -0.0999
     21 C16        -0.5723   -3.8794    0.1331 C.ar      1 <0>        -0.0388
     22 C17         0.2111   -5.0145    0.0542 C.ar      1 <0>        -0.1997
     23 C18         1.1359   -5.2885    1.0512 C.ar      1 <0>         0.1496
     24 C19         1.2715   -4.4209    2.1259 C.ar      1 <0>        -0.1128
     25 C20         0.4887   -3.2837    2.1973 C.ar      1 <0>        -0.0408
     26 Br1         2.5304   -4.7905    3.4877 Br        1 <0>        -0.0261
     27 O2          1.9075   -6.4049    0.9759 O.3       1 <0>        -0.3158
     28 C21         1.7133   -7.2525   -0.1581 C.3       1 <0>         0.0248
     29 C22         2.6629   -8.4488   -0.0692 C.3       1 <0>         0.0039
     30 N1          2.3076   -9.2705    1.0954 N.4       1 <0>        -0.3969
     31 C23         0.9967   -9.9329    0.8742 C.3       1 <0>        -0.0107
     32 C24         1.0369  -11.1340    1.8521 C.3       1 <0>        -0.1447
     33 C25         2.5116  -11.5920    1.7767 C.3       1 <0>        -0.1447
     34 C26         3.2884  -10.3643    1.2662 C.3       1 <0>        -0.0086
     35 O3         -5.8683   -4.8907   -1.7561 O.3       1 <0>        -0.4970
     36 H3         -4.6493   -1.1370    0.4315 H         1 <0>         0.1343
     37 H4         -6.0664   -2.3430   -1.1798 H         1 <0>         0.1370
     38 H5         -3.9320   -5.9504   -0.3455 H         1 <0>         0.1300
     39 H6         -2.5221   -4.7382    1.2674 H         1 <0>         0.1331
     40 H7          1.1024    0.2042    4.4765 H         1 <0>         0.1393
     41 H8          1.3310   -0.5849    6.7826 H         1 <0>         0.1436
     42 H9         -1.6500   -3.5405    6.0459 H         1 <0>         0.1372
     43 H10        -0.6368   -2.1172    8.4654 H         1 <0>         0.3989
     44 H11        -1.2924   -3.6660   -0.6430 H         1 <0>         0.1385
     45 H12         0.1034   -5.6883   -0.7830 H         1 <0>         0.1383
     46 H13         0.5964   -2.6059    3.0312 H         1 <0>         0.1576
     47 H14         0.6827   -7.6070   -0.1745 H         1 <0>         0.0878
     48 H15         1.9193   -6.6920   -1.0701 H         1 <0>         0.1111
     49 H16         2.5785   -9.0478   -0.9759 H         1 <0>         0.1500
     50 H17         3.6875   -8.0923    0.0366 H         1 <0>         0.1426
     51 H18         0.1778   -9.2591    1.1259 H         1 <0>         0.1329
     52 H19         0.9093  -10.2783   -0.1560 H         1 <0>         0.1352
     53 H20         0.7828  -10.8166    2.8634 H         1 <0>         0.0986
     54 H21         0.3690  -11.9273    1.5164 H         1 <0>         0.1175
     55 H22         2.8688  -11.8816    2.7649 H         1 <0>         0.1058
     56 H23         2.6146  -12.4223    1.0780 H         1 <0>         0.1046
     57 H24         3.7588  -10.5938    0.3101 H         1 <0>         0.1317
     58 H25         4.0450  -10.0742    1.9951 H         1 <0>         0.1331
     59 H26        -5.5206   -4.8934   -2.6584 H         1 <0>         0.3950
     60 H27         2.2743   -8.7001    1.9271 H         1 <0>         0.4344
@<TRIPOS>BOND
     1    1    6 ar
     2    1    2 ar
     3    1   36 1
     4    2    3 ar
     5    2   37 1
     6    3    4 ar
     7    3   35 1
     8    4    5 ar
     9    4   38 1
    10    5    6 ar
    11    5   39 1
    12    6    7 1
    13    7    8 1
    14    7   18 1
    15    7    9 1
    16    9   10 1
    17    9   11 1
    18    9   20 1
    19   11   12 1
    20   12   17 ar
    21   12   13 ar
    22   13   14 ar
    23   13   40 1
    24   14   15 ar
    25   14   41 1
    26   15   16 ar
    27   15   19 1
    28   16   17 ar
    29   16   42 1
    30   17   18 1
    31   19   43 1
    32   20   25 ar
    33   20   21 ar
    34   21   22 ar
    35   21   44 1
    36   22   23 ar
    37   22   45 1
    38   23   24 ar
    39   23   27 1
    40   24   25 ar
    41   24   26 1
    42   25   46 1
    43   27   28 1
    44   28   29 1
    45   28   47 1
    46   28   48 1
    47   29   30 1
    48   29   49 1
    49   29   50 1
    50   30   34 1
    51   30   31 1
    52   30   60 1
    53   31   32 1
    54   31   51 1
    55   31   52 1
    56   32   33 1
    57   32   53 1
    58   32   54 1
    59   33   34 1
    60   33   55 1
    61   33   56 1
    62   34   57 1
    63   34   58 1
    64   35   59 1
