@<TRIPOS>MOLECULE
CHEMBL25228
   41    45     0     0     0
SMALL
USER_CHARGES

@<TRIPOS>ATOM
      1 C1         -0.0167    1.3774    0.0096 C.ar      1 <0>        -0.0942
      2 C2          1.1671    2.0943    0.0022 C.ar      1 <0>        -0.0935
      3 C3          2.3826    1.4378   -0.0130 C.ar      1 <0>        -0.0580
      4 C4          2.4245    0.0418   -0.0214 C.ar      1 <0>        -0.1415
      5 C5          1.2198   -0.6879   -0.0140 C.ar      1 <0>        -0.1438
      6 C6          0.0021   -0.0041    0.0020 C.ar      1 <0>        -0.0578
      7 C7          1.5112   -2.1340   -0.0270 C.2       1 <0>         0.4357
      8 O1          0.6978   -3.0330   -0.0236 O.2       1 <0>        -0.3972
      9 C8          3.0089   -2.2826   -0.0457 C.3       1 <0>        -0.0828
     10 C9          3.5710   -0.8865   -0.0378 C.2       1 <0>         0.4367
     11 O2          4.7445   -0.5822   -0.0444 O.2       1 <0>        -0.3965
     12 C10         3.4629   -3.0438   -1.2616 C.ar      1 <0>        -0.0936
     13 C11         3.3283   -2.8289   -2.6140 C.ar      1 <0>        -0.0728
     14 C12         3.8664   -3.7286   -3.5170 C.ar      1 <0>        -0.1322
     15 C13         4.5440   -4.8521   -3.0612 C.ar      1 <0>         0.1199
     16 C14         4.6854   -5.0772   -1.7035 C.ar      1 <0>        -0.1160
     17 C15         4.1441   -4.1704   -0.7868 C.ar      1 <0>        -0.0421
     18 C16         4.1399   -4.1496    0.6843 C.2       1 <0>        -0.0673
     19 C17         3.4909   -3.0696    1.1436 C.2       1 <0>        -0.0684
     20 C18         3.2859   -2.7167    2.5593 C.ar      1 <0>        -0.0571
     21 C19         1.9963   -2.7009    3.0983 C.ar      1 <0>        -0.0844
     22 C20         1.8096   -2.3706    4.4230 C.ar      1 <0>        -0.1416
     23 C21         2.9003   -2.0533    5.2223 C.ar      1 <0>         0.1170
     24 C22         4.1837   -2.0672    4.6912 C.ar      1 <0>        -0.1429
     25 C23         4.3810   -2.4023    3.3692 C.ar      1 <0>        -0.0767
     26 O3          2.7113   -1.7279    6.5277 O.3       1 <0>        -0.4983
     27 O4          5.0695   -5.7337   -3.9521 O.3       1 <0>        -0.4948
     28 H1         -0.9610    1.9011    0.0260 H         1 <0>         0.1423
     29 H2          1.1404    3.1740    0.0079 H         1 <0>         0.1423
     30 H3          3.3017    2.0049   -0.0187 H         1 <0>         0.1407
     31 H4         -0.9262   -0.5560    0.0085 H         1 <0>         0.1409
     32 H5          2.8015   -1.9565   -2.9714 H         1 <0>         0.1296
     33 H6          3.7591   -3.5573   -4.5779 H         1 <0>         0.1402
     34 H7          5.2127   -5.9518   -1.3522 H         1 <0>         0.1380
     35 H8          4.5976   -4.9019    1.3096 H         1 <0>         0.1506
     36 H9          1.1475   -2.9467    2.4774 H         1 <0>         0.1274
     37 H10         0.8136   -2.3581    4.8403 H         1 <0>         0.1342
     38 H11         5.0287   -1.8195    5.3164 H         1 <0>         0.1352
     39 H12         5.3796   -2.4174    2.9583 H         1 <0>         0.1331
     40 H13         2.7398   -2.4842    7.1297 H         1 <0>         0.3942
     41 H14         5.9788   -5.5337   -4.2136 H         1 <0>         0.3952
@<TRIPOS>BOND
     1    1    6 ar
     2    1    2 ar
     3    1   28 1
     4    2    3 ar
     5    2   29 1
     6    3    4 ar
     7    3   30 1
     8    4   10 1
     9    4    5 ar
    10    5    6 ar
    11    5    7 1
    12    6   31 1
    13    7    8 2
    14    7    9 1
    15    9   19 1
    16    9   10 1
    17    9   12 1
    18   10   11 2
    19   12   17 ar
    20   12   13 ar
    21   13   14 ar
    22   13   32 1
    23   14   15 ar
    24   14   33 1
    25   15   16 ar
    26   15   27 1
    27   16   17 ar
    28   16   34 1
    29   17   18 1
    30   18   19 2
    31   18   35 1
    32   19   20 1
    33   20   25 ar
    34   20   21 ar
    35   21   22 ar
    36   21   36 1
    37   22   23 ar
    38   22   37 1
    39   23   24 ar
    40   23   26 1
    41   24   25 ar
    42   24   38 1
    43   25   39 1
    44   26   40 1
    45   27   41 1
