@<TRIPOS>MOLECULE
CHEMBL185083
   64    69     0     0     0
SMALL
USER_CHARGES

@<TRIPOS>ATOM
      1 C1          1.1631   -0.6117   -0.4390 C.ar      1 <0>        -0.0873
      2 C2          2.3518    0.0921   -0.4484 C.ar      1 <0>        -0.1389
      3 C3          2.3800    1.4096   -0.0147 C.ar      1 <0>         0.1156
      4 C4          1.2137    2.0170    0.4273 C.ar      1 <0>        -0.1461
      5 C5          0.0275    1.3089    0.4346 C.ar      1 <0>        -0.0837
      6 C6          0.0021   -0.0041    0.0020 C.ar      1 <0>        -0.0894
      7 C7         -1.2934   -0.7740    0.0107 C.3       1 <0>        -0.0643
      8 H1         -2.1334   -0.0869    0.1120 H         1 <0>         0.1382
      9 C8         -1.2969   -1.7821    1.1721 C.3       1 <0>         0.1498
     10 H2         -2.1779   -2.4197    1.0986 H         1 <0>         0.0961
     11 O1         -0.1255   -2.5802    1.0967 O.3       1 <0>        -0.3050
     12 C9          0.1551   -3.3416    0.0132 C.ar      1 <0>         0.1211
     13 C10         0.9986   -4.4351    0.1946 C.ar      1 <0>        -0.1141
     14 C11         1.3394   -5.2447   -0.8692 C.ar      1 <0>        -0.1061
     15 C12         0.8443   -4.9772   -2.1372 C.ar      1 <0>         0.0985
     16 C13        -0.0005   -3.8960   -2.3286 C.ar      1 <0>        -0.0901
     17 C14        -0.3494   -3.0850   -1.2568 C.ar      1 <0>        -0.1477
     18 S1         -1.4568   -1.7323   -1.5285 S.3       1 <0>        -0.0841
     19 O2          1.1866   -5.7716   -3.1864 O.3       1 <0>        -0.4915
     20 C15        -1.3198   -1.0400    2.4835 C.ar      1 <0>        -0.1052
     21 C16        -0.1522   -0.5024    2.9927 C.ar      1 <0>        -0.0347
     22 C17        -0.1704    0.1779    4.1949 C.ar      1 <0>        -0.1424
     23 C18        -1.3617    0.3218    4.8912 C.ar      1 <0>         0.1245
     24 C19        -2.5320   -0.2182    4.3779 C.ar      1 <0>        -0.2041
     25 C20        -2.5094   -0.8931    3.1727 C.ar      1 <0>        -0.0587
     26 O3         -1.3822    0.9902    6.0743 O.3       1 <0>        -0.3235
     27 C21        -2.6441    1.0995    6.7359 C.3       1 <0>         0.0297
     28 C22        -2.4698    1.8785    8.0411 C.3       1 <0>         0.0009
     29 N1         -2.0692    3.2589    7.7377 N.4       1 <0>        -0.4095
     30 C23        -0.6099    3.4245    7.5800 C.3       1 <0>         0.0238
     31 C24        -0.7454    4.7505    8.3184 C.3       1 <0>        -0.1413
     32 C25        -1.9900    4.1225    8.9334 C.3       1 <0>         0.0257
     33 C26        -0.7942    6.0856    7.5800 C.3       1 <0>        -0.1194
     34 C27        -0.1896    6.7091    8.8518 C.3       1 <0>        -0.1423
     35 C28         0.3827    5.3168    9.1767 C.3       1 <0>        -0.1130
     36 O4          3.5482    2.1039   -0.0225 O.3       1 <0>        -0.4999
     37 H3          1.1398   -1.6359   -0.7807 H         1 <0>         0.1323
     38 H4          3.2585   -0.3831   -0.7926 H         1 <0>         0.1315
     39 H5          1.2331    3.0424    0.7657 H         1 <0>         0.1292
     40 H6         -0.8807    1.7813    0.7787 H         1 <0>         0.1234
     41 H7          1.3899   -4.6512    1.1778 H         1 <0>         0.1413
     42 H8          1.9942   -6.0894   -0.7144 H         1 <0>         0.1429
     43 H9         -0.3883   -3.6831   -3.3139 H         1 <0>         0.1405
     44 H10         0.5878   -6.5179   -3.3264 H         1 <0>         0.3946
     45 H11         0.7750   -0.6147    2.4504 H         1 <0>         0.1384
     46 H12         0.7420    0.5970    4.5927 H         1 <0>         0.1343
     47 H13        -3.4607   -0.1075    4.9180 H         1 <0>         0.1310
     48 H14        -3.4210   -1.3098    2.7705 H         1 <0>         0.1343
     49 H15        -3.3483    1.6246    6.0906 H         1 <0>         0.0846
     50 H16        -3.0265    0.1028    6.9560 H         1 <0>         0.1082
     51 H17        -3.4123    1.8857    8.5886 H         1 <0>         0.1486
     52 H18        -1.7003    1.4021    8.6486 H         1 <0>         0.1407
     53 H19        -0.0264    2.6814    8.1235 H         1 <0>         0.1507
     54 H20        -0.2940    3.5343    6.5426 H         1 <0>         0.1358
     55 H21        -2.8265    4.8151    9.0261 H         1 <0>         0.1380
     56 H22        -1.7910    3.5739    9.8540 H         1 <0>         0.1537
     57 H23        -0.1342    6.1312    6.7138 H         1 <0>         0.1051
     58 H24        -1.8057    6.4288    7.3625 H         1 <0>         0.0822
     59 H25         0.5755    7.4583    8.6484 H         1 <0>         0.0856
     60 H26        -0.9374    7.0508    9.5675 H         1 <0>         0.0901
     61 H27         0.3083    5.0479   10.2304 H         1 <0>         0.0867
     62 H28         1.3763    5.1445    8.7630 H         1 <0>         0.1043
     63 H29         3.7178    2.5792   -0.8474 H         1 <0>         0.3955
     64 H30        -2.6028    3.6661    6.9844 H         1 <0>         0.4349
@<TRIPOS>BOND
     1    1    6 ar
     2    1    2 ar
     3    1   37 1
     4    2    3 ar
     5    2   38 1
     6    3    4 ar
     7    3   36 1
     8    4    5 ar
     9    4   39 1
    10    5    6 ar
    11    5   40 1
    12    6    7 1
    13    7    8 1
    14    7   18 1
    15    7    9 1
    16    9   10 1
    17    9   11 1
    18    9   20 1
    19   11   12 1
    20   12   17 ar
    21   12   13 ar
    22   13   14 ar
    23   13   41 1
    24   14   15 ar
    25   14   42 1
    26   15   16 ar
    27   15   19 1
    28   16   17 ar
    29   16   43 1
    30   17   18 1
    31   19   44 1
    32   20   25 ar
    33   20   21 ar
    34   21   22 ar
    35   21   45 1
    36   22   23 ar
    37   22   46 1
    38   23   24 ar
    39   23   26 1
    40   24   25 ar
    41   24   47 1
    42   25   48 1
    43   26   27 1
    44   27   28 1
    45   27   49 1
    46   27   50 1
    47   28   29 1
    48   28   51 1
    49   28   52 1
    50   29   32 1
    51   29   30 1
    52   29   64 1
    53   30   31 1
    54   30   53 1
    55   30   54 1
    56   31   35 1
    57   31   32 1
    58   31   33 1
    59   32   55 1
    60   32   56 1
    61   33   34 1
    62   33   57 1
    63   33   58 1
    64   34   35 1
    65   34   59 1
    66   34   60 1
    67   35   61 1
    68   35   62 1
    69   36   63 1
