@<TRIPOS>MOLECULE
CHEMBL396947
   34    37     0     0     0
SMALL
USER_CHARGES

@<TRIPOS>ATOM
      1 C1         -0.0168    1.3876    0.0097 C.ar      1 <0>        -0.1151
      2 C2          1.1402    2.1059    0.0025 C.ar      1 <0>        -0.0735
      3 C3          2.3773    1.4420   -0.0129 C.ar      1 <0>        -0.0717
      4 C4          2.4094    0.0263   -0.0207 C.ar      1 <0>        -0.0188
      5 C5          3.6477   -0.6360   -0.0370 C.ar      1 <0>        -0.1189
      6 C6          4.8015    0.0872   -0.0450 C.ar      1 <0>        -0.0851
      7 C7          4.7760    1.4793   -0.0374 C.ar      1 <0>        -0.1422
      8 C8          3.5913    2.1595   -0.0211 C.ar      1 <0>         0.1278
      9 O1          3.5829    3.5177   -0.0139 O.3       1 <0>        -0.4902
     10 C9          1.1955   -0.6922   -0.0125 C.ar      1 <0>         0.1171
     11 C10         0.0021   -0.0041    0.0020 C.ar      1 <0>        -0.0752
     12 N1          1.2035   -2.0912   -0.0196 N.am      1 <0>        -0.5302
     13 C11         1.2127   -2.8577    1.0857 C.2       1 <0>         0.5758
     14 O2          1.2158   -2.4504    2.2302 O.2       1 <0>        -0.4467
     15 C12         1.2181   -4.2755    0.6767 C.ar      1 <0>        -0.1504
     16 C13         1.2276   -5.4808    1.3641 C.ar      1 <0>        -0.0220
     17 C14         1.2304   -6.6727    0.6622 C.ar      1 <0>        -0.1220
     18 C15         1.2241   -6.6708   -0.7261 C.ar      1 <0>         0.1394
     19 C16         1.2150   -5.4673   -1.4279 C.ar      1 <0>        -0.0706
     20 C17         1.2113   -4.2704   -0.7343 C.ar      1 <0>        -0.1184
     21 C18         1.1970   -2.8466   -1.1328 C.2       1 <0>         0.5744
     22 O3          1.1842   -2.4293   -2.2732 O.2       1 <0>        -0.4432
     23 O4          1.2274   -7.8471   -1.4029 O.3       1 <0>        -0.4888
     24 H1         -0.9641    1.9060    0.0260 H         1 <0>         0.1380
     25 H2          1.1062    3.1854    0.0082 H         1 <0>         0.1404
     26 H3          3.6847   -1.7154   -0.0428 H         1 <0>         0.1199
     27 H4          5.7511   -0.4270   -0.0572 H         1 <0>         0.1326
     28 H5          5.7057    2.0290   -0.0436 H         1 <0>         0.1356
     29 H6          3.5891    3.9064    0.8716 H         1 <0>         0.3945
     30 H7         -0.9294   -0.5507    0.0083 H         1 <0>         0.1318
     31 H8          1.2332   -5.4883    2.4441 H         1 <0>         0.1502
     32 H9          1.2378   -7.6107    1.1974 H         1 <0>         0.1517
     33 H10         1.2109   -5.4689   -2.5079 H         1 <0>         0.1510
     34 H11         0.3450   -8.1928   -1.5951 H         1 <0>         0.4028
@<TRIPOS>BOND
     1    1   11 ar
     2    1    2 ar
     3    1   24 1
     4    2    3 ar
     5    2   25 1
     6    3    8 ar
     7    3    4 ar
     8    4    5 ar
     9    4   10 ar
    10    5    6 ar
    11    5   26 1
    12    6    7 ar
    13    6   27 1
    14    7    8 ar
    15    7   28 1
    16    8    9 1
    17    9   29 1
    18   10   11 ar
    19   10   12 1
    20   11   30 1
    21   12   21 am
    22   12   13 am
    23   13   14 2
    24   13   15 1
    25   15   20 ar
    26   15   16 ar
    27   16   17 ar
    28   16   31 1
    29   17   18 ar
    30   17   32 1
    31   18   19 ar
    32   18   23 1
    33   19   20 ar
    34   19   33 1
    35   20   21 1
    36   21   22 2
    37   23   34 1
