@<TRIPOS>MOLECULE
CHEMBL58449
   60    64     0     0     0
SMALL
USER_CHARGES

@<TRIPOS>ATOM
      1 C1          0.8332    1.3107    0.3404 C.3       1 <0>        -0.1188
      2 C2          0.6299   -0.1806    0.2634 C.ar      1 <0>        -0.1009
      3 C3          0.6351   -0.8141   -0.9614 C.ar      1 <0>        -0.0535
      4 C4          0.4470   -2.1936   -1.0318 C.ar      1 <0>        -0.1117
      5 C5          0.2540   -2.9286    0.1373 C.ar      1 <0>        -0.0856
      6 C6          0.2497   -2.2896    1.3588 C.ar      1 <0>        -0.1328
      7 C7          0.4431   -0.9159    1.4261 C.ar      1 <0>         0.1544
      8 O1          0.4439   -0.2898    2.6316 O.3       1 <0>        -0.4880
      9 C8          0.4516   -2.8778   -2.3473 C.ar      1 <0>         0.2467
     10 C9          0.6501   -2.1369   -3.5067 C.ar      1 <0>        -0.1732
     11 C10         0.6528   -2.7930   -4.7400 C.ar      1 <0>         0.1342
     12 C11         0.4547   -4.1746   -4.7566 C.ar      1 <0>        -0.2117
     13 C12         0.2630   -4.8458   -3.5553 C.ar      1 <0>         0.4563
     14 N1          0.2715   -4.1924   -2.4043 N.ar      1 <0>        -0.5176
     15 N2          0.0644   -6.2218   -3.5620 N.pl3     1 <0>        -0.5896
     16 C13        -0.1387   -6.9387   -2.3007 C.3       1 <0>         0.0534
     17 C14         0.0583   -6.9548   -4.8304 C.3       1 <0>         0.1581
     18 C15         1.4736   -7.2937   -5.2216 C.ar      1 <0>        -0.1181
     19 C16         2.5023   -7.0196   -4.3732 C.ar      1 <0>        -0.0990
     20 C17         3.8172   -7.3256   -4.7175 C.ar      1 <0>        -0.1224
     21 C18         4.1116   -7.9073   -5.9125 C.ar      1 <0>        -0.0853
     22 C19         3.0762   -8.2053   -6.8143 C.ar      1 <0>        -0.0493
     23 C20         1.7378   -7.8996   -6.4614 C.ar      1 <0>        -0.0372
     24 C21         0.7016   -8.2031   -7.3612 C.ar      1 <0>        -0.1251
     25 C22         0.9954   -8.7900   -8.5533 C.ar      1 <0>        -0.0970
     26 C23         2.3108   -9.0965   -8.8976 C.ar      1 <0>        -0.1118
     27 C24         3.3411   -8.8052   -8.0574 C.ar      1 <0>        -0.0983
     28 C25         0.8607   -2.0396   -6.0015 C.ar      1 <0>        -0.1017
     29 C26         0.8549   -2.7079   -7.2241 C.ar      1 <0>        -0.0765
     30 C27         1.0488   -2.0022   -8.3943 C.ar      1 <0>        -0.1194
     31 C28         1.2490   -0.6341   -8.3548 C.ar      1 <0>        -0.0771
     32 C29         1.2561    0.0343   -7.1438 C.ar      1 <0>        -0.1195
     33 C30         1.0566   -0.6605   -5.9680 C.ar      1 <0>        -0.0781
     34 H1          1.8974    1.5280    0.4321 H         1 <0>         0.0837
     35 H2          0.4436    1.7777   -0.5642 H         1 <0>         0.0751
     36 H3          0.3057    1.7049    1.2089 H         1 <0>         0.0778
     37 H4          0.7845   -0.2421   -1.8652 H         1 <0>         0.1438
     38 H5          0.1076   -3.9974    0.0859 H         1 <0>         0.1232
     39 H6          0.1003   -2.8584    2.2647 H         1 <0>         0.1473
     40 H7         -0.4285    0.0137    2.9178 H         1 <0>         0.4046
     41 H8          0.7998   -1.0686   -3.4547 H         1 <0>         0.1777
     42 H9          0.4502   -4.7151   -5.6916 H         1 <0>         0.1771
     43 H10        -1.1913   -6.8920   -2.0216 H         1 <0>         0.0860
     44 H11         0.1589   -7.9802   -2.4227 H         1 <0>         0.1111
     45 H12         0.4653   -6.4775   -1.5193 H         1 <0>         0.0714
     46 H13        -0.5170   -7.8736   -4.7163 H         1 <0>         0.1209
     47 H14        -0.3946   -6.3364   -5.6053 H         1 <0>         0.1055
     48 H15         2.2960   -6.5576   -3.4190 H         1 <0>         0.1100
     49 H16         4.6150   -7.0976   -4.0261 H         1 <0>         0.1257
     50 H17         5.1356   -8.1383   -6.1662 H         1 <0>         0.1330
     51 H18        -0.3225   -7.9720   -7.1077 H         1 <0>         0.1264
     52 H19         0.1973   -9.0221   -9.2429 H         1 <0>         0.1289
     53 H20         2.5166   -9.5625   -9.8499 H         1 <0>         0.1297
     54 H21         4.3555   -9.0477   -8.3379 H         1 <0>         0.1326
     55 H22         0.6994   -3.7762   -7.2559 H         1 <0>         0.1293
     56 H23         1.0446   -2.5192   -9.3425 H         1 <0>         0.1365
     57 H24         1.4007   -0.0859   -9.2729 H         1 <0>         0.1362
     58 H25         1.4136    1.1025   -7.1187 H         1 <0>         0.1376
     59 H26         1.0575   -0.1369   -5.0234 H         1 <0>         0.1317
     60 H27         0.1391   -4.6867   -1.5802 H         1 <0>         0.4330
@<TRIPOS>BOND
     1    1    2 1
     2    1   34 1
     3    1   35 1
     4    1   36 1
     5    2    7 ar
     6    2    3 ar
     7    3    4 ar
     8    3   37 1
     9    4    5 ar
    10    4    9 1
    11    5    6 ar
    12    5   38 1
    13    6    7 ar
    14    6   39 1
    15    7    8 1
    16    8   40 1
    17    9   14 ar
    18    9   10 ar
    19   10   11 ar
    20   10   41 1
    21   11   12 ar
    22   11   28 1
    23   12   13 ar
    24   12   42 1
    25   13   14 ar
    26   13   15 1
    27   14   60 1
    28   15   16 1
    29   15   17 1
    30   16   43 1
    31   16   44 1
    32   16   45 1
    33   17   18 1
    34   17   46 1
    35   17   47 1
    36   18   23 ar
    37   18   19 ar
    38   19   20 ar
    39   19   48 1
    40   20   21 ar
    41   20   49 1
    42   21   22 ar
    43   21   50 1
    44   22   27 ar
    45   22   23 ar
    46   23   24 ar
    47   24   25 ar
    48   24   51 1
    49   25   26 ar
    50   25   52 1
    51   26   27 ar
    52   26   53 1
    53   27   54 1
    54   28   33 ar
    55   28   29 ar
    56   29   30 ar
    57   29   55 1
    58   30   31 ar
    59   30   56 1
    60   31   32 ar
    61   31   57 1
    62   32   33 ar
    63   32   58 1
    64   33   59 1
