@<TRIPOS>MOLECULE
CHEMBL183333
   61    65     0     0     0
SMALL
USER_CHARGES

@<TRIPOS>ATOM
      1 C1         -0.0231    1.6336   -1.6547 C.ar      1 <0>        -0.1130
      2 C2         -0.1154    0.5317   -0.8251 C.ar      1 <0>        -0.1229
      3 C3          1.0313   -0.1198   -0.4112 C.ar      1 <0>        -0.0934
      4 C4          2.2704    0.3303   -0.8271 C.ar      1 <0>        -0.0694
      5 C5          2.3626    1.4316   -1.6574 C.ar      1 <0>        -0.1013
      6 C6          1.2160    2.0840   -2.0703 C.ar      1 <0>        -0.1174
      7 C7          3.5206   -0.3794   -0.3751 C.3       1 <0>        -0.0046
      8 H1          4.3830    0.2754   -0.5000 H         1 <0>         0.1060
      9 C8          3.7154   -1.6505   -1.1883 C.3       1 <0>         0.0046
     10 H2          3.9251   -1.3741   -2.2216 H         1 <0>         0.1005
     11 C9          4.8319   -2.5226   -0.6887 C.ar      1 <0>        -0.0804
     12 C10         5.3408   -3.4103   -1.6447 C.ar      1 <0>        -0.0930
     13 C11         6.3522   -4.2898   -1.3454 C.ar      1 <0>        -0.1394
     14 C12         6.8858   -4.3058   -0.0643 C.ar      1 <0>         0.1174
     15 C13         6.3922   -3.4277    0.8799 C.ar      1 <0>        -0.1415
     16 C14         5.3718   -2.5275    0.5701 C.ar      1 <0>        -0.0596
     17 C15         4.9807   -1.6064    1.6999 C.3       1 <0>        -0.0588
     18 S1          3.3592   -0.8618    1.3738 S.3       1 <0>        -0.2219
     19 O1          7.8805   -5.1743    0.2566 O.3       1 <0>        -0.4969
     20 C16         2.4353   -2.4449   -1.1540 C.ar      1 <0>        -0.0917
     21 C17         2.0845   -3.1395   -0.0110 C.ar      1 <0>        -0.0509
     22 C18         0.9118   -3.8689    0.0228 C.ar      1 <0>        -0.1459
     23 C19         0.0856   -3.9037   -1.0911 C.ar      1 <0>         0.1141
     24 C20         0.4396   -3.2056   -2.2365 C.ar      1 <0>        -0.2034
     25 C21         1.6108   -2.4735   -2.2635 C.ar      1 <0>        -0.0622
     26 O2         -1.0684   -4.6209   -1.0605 O.3       1 <0>        -0.3290
     27 C22        -1.8697   -4.6114   -2.2436 C.3       1 <0>         0.0279
     28 C23        -3.1182   -5.4672   -2.0208 C.3       1 <0>         0.0036
     29 N1         -3.9539   -4.8528   -0.9805 N.4       1 <0>        -0.3954
     30 C24        -4.5368   -3.5801   -1.4772 C.3       1 <0>        -0.0102
     31 C25        -5.7670   -3.3714   -0.5587 C.3       1 <0>        -0.1446
     32 C26        -6.3024   -4.8089   -0.3661 C.3       1 <0>        -0.1450
     33 C27        -5.1042   -5.7281   -0.6674 C.3       1 <0>        -0.0088
     34 H3         -0.9193    2.1399   -1.9817 H         1 <0>         0.1216
     35 H4         -1.0835    0.1800   -0.5001 H         1 <0>         0.1156
     36 H5          0.9593   -0.9803    0.2375 H         1 <0>         0.1285
     37 H6          3.3307    1.7835   -1.9822 H         1 <0>         0.1246
     38 H7          1.2880    2.9447   -2.7186 H         1 <0>         0.1260
     39 H8          4.9273   -3.4034   -2.6424 H         1 <0>         0.1259
     40 H9          6.7290   -4.9637   -2.1006 H         1 <0>         0.1332
     41 H10         6.8038   -3.4379    1.8783 H         1 <0>         0.1323
     42 H11         4.9372   -2.1738    2.6296 H         1 <0>         0.1214
     43 H12         5.7262   -0.8170    1.7964 H         1 <0>         0.1048
     44 H13         8.7702   -4.8264    0.1063 H         1 <0>         0.3962
     45 H14         2.7280   -3.1120    0.8559 H         1 <0>         0.1461
     46 H15         0.6386   -4.4118    0.9155 H         1 <0>         0.1304
     47 H16        -0.2019   -3.2312   -3.1050 H         1 <0>         0.1240
     48 H17         1.8846   -1.9262   -3.1534 H         1 <0>         0.1253
     49 H18        -2.1669   -3.5880   -2.4730 H         1 <0>         0.0843
     50 H19        -1.2944   -5.0177   -3.0754 H         1 <0>         0.1068
     51 H20        -3.6844   -5.5327   -2.9499 H         1 <0>         0.1476
     52 H21        -2.8215   -6.4673   -1.7049 H         1 <0>         0.1409
     53 H22        -3.8271   -2.7609   -1.3616 H         1 <0>         0.1333
     54 H23        -4.8459   -3.6788   -2.5178 H         1 <0>         0.1345
     55 H24        -5.4667   -2.9404    0.3963 H         1 <0>         0.0984
     56 H25        -6.5122   -2.7447   -1.0486 H         1 <0>         0.1171
     57 H26        -6.6405   -4.9522    0.6602 H         1 <0>         0.1056
     58 H27        -7.1158   -5.0064   -1.0643 H         1 <0>         0.1042
     59 H28        -5.3303   -6.3644   -1.5230 H         1 <0>         0.1312
     60 H29        -4.8778   -6.3410    0.2051 H         1 <0>         0.1329
     61 H30        -3.4076   -4.6852   -0.1489 H         1 <0>         0.4338
@<TRIPOS>BOND
     1    1    6 ar
     2    1    2 ar
     3    1   34 1
     4    2    3 ar
     5    2   35 1
     6    3    4 ar
     7    3   36 1
     8    4    5 ar
     9    4    7 1
    10    5    6 ar
    11    5   37 1
    12    6   38 1
    13    7    8 1
    14    7   18 1
    15    7    9 1
    16    9   10 1
    17    9   11 1
    18    9   20 1
    19   11   16 ar
    20   11   12 ar
    21   12   13 ar
    22   12   39 1
    23   13   14 ar
    24   13   40 1
    25   14   15 ar
    26   14   19 1
    27   15   16 ar
    28   15   41 1
    29   16   17 1
    30   17   18 1
    31   17   42 1
    32   17   43 1
    33   19   44 1
    34   20   25 ar
    35   20   21 ar
    36   21   22 ar
    37   21   45 1
    38   22   23 ar
    39   22   46 1
    40   23   24 ar
    41   23   26 1
    42   24   25 ar
    43   24   47 1
    44   25   48 1
    45   26   27 1
    46   27   28 1
    47   27   49 1
    48   27   50 1
    49   28   29 1
    50   28   51 1
    51   28   52 1
    52   29   33 1
    53   29   30 1
    54   29   61 1
    55   30   31 1
    56   30   53 1
    57   30   54 1
    58   31   32 1
    59   31   55 1
    60   31   56 1
    61   32   33 1
    62   32   57 1
    63   32   58 1
    64   33   59 1
    65   33   60 1
