@<TRIPOS>MOLECULE
CHEMBL316132
   71    75     0     0     0
SMALL
USER_CHARGES

@<TRIPOS>ATOM
      1 C1          0.0368    1.4945   -1.3565 C.ar      1 <0>        -0.0608
      2 C2          1.2267    2.1302   -1.0591 C.ar      1 <0>        -0.1388
      3 C3          2.3908    1.3893   -0.9163 C.ar      1 <0>         0.1215
      4 C4          2.3568    0.0112   -1.0726 C.ar      1 <0>        -0.2032
      5 C5          1.1644   -0.6198   -1.3700 C.ar      1 <0>        -0.0467
      6 C6          0.0056    0.1209   -1.5119 C.ar      1 <0>        -0.1000
      7 C7         -1.2939   -0.5701   -1.8359 C.3       1 <0>         0.1438
      8 H1         -2.1258    0.0169   -1.4467 H         1 <0>         0.0928
      9 C8         -1.4342   -0.7130   -3.3606 C.3       1 <0>        -0.1054
     10 H2         -1.3272    0.2616   -3.8369 H         1 <0>         0.1305
     11 S1         -3.0967   -1.3819   -3.6813 S.3       1 <0>        -0.0892
     12 C9         -3.2485   -2.6422   -2.4527 C.ar      1 <0>        -0.1354
     13 C10        -4.2786   -3.5673   -2.5594 C.ar      1 <0>        -0.0925
     14 C11        -4.4240   -4.5602   -1.6042 C.ar      1 <0>         0.0992
     15 C12        -3.5368   -4.6231   -0.5397 C.ar      1 <0>        -0.1099
     16 C13        -2.5118   -3.7057   -0.4345 C.ar      1 <0>        -0.1163
     17 C14        -2.3511   -2.7076   -1.3927 C.ar      1 <0>         0.1251
     18 O1         -1.3057   -1.8604   -1.2445 O.3       1 <0>        -0.3089
     19 O2         -5.4312   -5.4678   -1.7093 O.3       1 <0>        -0.4927
     20 C15        -0.3706   -1.6743   -3.8949 C.3       1 <0>        -0.0627
     21 C16        -0.3309   -1.5703   -5.4333 C.3       1 <0>        -0.1131
     22 C17         0.9976   -2.0891   -5.9132 C.3       1 <0>        -0.1140
     23 C18         0.9432   -3.5791   -6.3012 C.3       1 <0>        -0.1173
     24 C19         0.1202   -4.4247   -5.3106 C.3       1 <0>        -0.1208
     25 C20         0.3820   -4.0495   -3.8771 C.3       1 <0>        -0.1054
     26 C21        -0.6802   -3.0210   -3.4377 C.3       1 <0>        -0.1762
     27 O3          3.5627    2.0125   -0.6242 O.3       1 <0>        -0.3266
     28 C22         4.7212    1.1865   -0.4916 C.3       1 <0>         0.0251
     29 C23         5.9348    2.0589   -0.1645 C.3       1 <0>        -0.0012
     30 N1          5.7565    2.6691    1.1598 N.4       1 <0>        -0.3843
     31 C24         6.8410    3.6272    1.4055 C.3       1 <0>        -0.0070
     32 C25         6.6159    4.3249    2.7486 C.3       1 <0>        -0.1467
     33 C26         6.5959    3.2769    3.8650 C.3       1 <0>        -0.1391
     34 C27         5.5101    2.2410    3.5599 C.3       1 <0>        -0.1454
     35 C28         5.7762    1.6205    2.1867 C.3       1 <0>        -0.0136
     36 H3         -0.8706    2.0703   -1.4634 H         1 <0>         0.1395
     37 H4          1.2506    3.2032   -0.9382 H         1 <0>         0.1376
     38 H5          3.2618   -0.5677   -0.9623 H         1 <0>         0.1297
     39 H6          1.1374   -1.6925   -1.4918 H         1 <0>         0.1381
     40 H7         -4.9678   -3.5129   -3.3891 H         1 <0>         0.1388
     41 H8         -3.6490   -5.3928    0.2096 H         1 <0>         0.1406
     42 H9         -1.8269   -3.7623    0.3986 H         1 <0>         0.1384
     43 H10        -5.1956   -6.2604   -2.2106 H         1 <0>         0.3941
     44 H11         0.6011   -1.3813   -3.4975 H         1 <0>         0.0805
     45 H12        -1.1344   -2.1694   -5.8617 H         1 <0>         0.0760
     46 H13        -0.4471   -0.5288   -5.7329 H         1 <0>         0.0609
     47 H14         1.3095   -1.5095   -6.7820 H         1 <0>         0.0588
     48 H15         1.7346   -1.9577   -5.1209 H         1 <0>         0.0555
     49 H16         0.4992   -3.6681   -7.2927 H         1 <0>         0.0596
     50 H17         1.9599   -3.9703   -6.3372 H         1 <0>         0.0568
     51 H18        -0.9397   -4.2853   -5.5237 H         1 <0>         0.0617
     52 H19         0.3709   -5.4761   -5.4514 H         1 <0>         0.0569
     53 H20         0.3144   -4.9371   -3.2481 H         1 <0>         0.0597
     54 H21         1.3756   -3.6100   -3.7893 H         1 <0>         0.0587
     55 H22        -0.7408   -3.0191   -2.3494 H         1 <0>         0.1022
     56 H23        -1.6476   -3.3176   -3.8428 H         1 <0>         0.0757
     57 H24         4.5642    0.4665    0.3116 H         1 <0>         0.0869
     58 H25         4.8974    0.6549   -1.4268 H         1 <0>         0.1099
     59 H26         6.8347    1.4437   -0.1629 H         1 <0>         0.1494
     60 H27         6.0319    2.8428   -0.9156 H         1 <0>         0.1431
     61 H28         7.7942    3.0989    1.4263 H         1 <0>         0.1293
     62 H29         6.8560    4.3705    0.6084 H         1 <0>         0.1311
     63 H30         7.4231    5.0346    2.9299 H         1 <0>         0.1132
     64 H31         5.6630    4.8538    2.7288 H         1 <0>         0.0880
     65 H32         7.5661    2.7830    3.9187 H         1 <0>         0.0822
     66 H33         6.3795    3.7622    4.8167 H         1 <0>         0.0949
     67 H34         5.5269    1.4610    4.3212 H         1 <0>         0.1125
     68 H35         4.5343    2.7266    3.5569 H         1 <0>         0.0879
     69 H36         5.0051    0.8823    1.9665 H         1 <0>         0.1273
     70 H37         6.7521    1.1349    2.1909 H         1 <0>         0.1305
     71 H38         4.8709    3.1516    1.1902 H         1 <0>         0.4291
@<TRIPOS>BOND
     1    1    6 ar
     2    1    2 ar
     3    1   36 1
     4    2    3 ar
     5    2   37 1
     6    3    4 ar
     7    3   27 1
     8    4    5 ar
     9    4   38 1
    10    5    6 ar
    11    5   39 1
    12    6    7 1
    13    7    8 1
    14    7   18 1
    15    7    9 1
    16    9   10 1
    17    9   11 1
    18    9   20 1
    19   11   12 1
    20   12   17 ar
    21   12   13 ar
    22   13   14 ar
    23   13   40 1
    24   14   15 ar
    25   14   19 1
    26   15   16 ar
    27   15   41 1
    28   16   17 ar
    29   16   42 1
    30   17   18 1
    31   19   43 1
    32   20   26 1
    33   20   21 1
    34   20   44 1
    35   21   22 1
    36   21   45 1
    37   21   46 1
    38   22   23 1
    39   22   47 1
    40   22   48 1
    41   23   24 1
    42   23   49 1
    43   23   50 1
    44   24   25 1
    45   24   51 1
    46   24   52 1
    47   25   26 1
    48   25   53 1
    49   25   54 1
    50   26   55 1
    51   26   56 1
    52   27   28 1
    53   28   29 1
    54   28   57 1
    55   28   58 1
    56   29   30 1
    57   29   59 1
    58   29   60 1
    59   30   35 1
    60   30   31 1
    61   30   71 1
    62   31   32 1
    63   31   61 1
    64   31   62 1
    65   32   33 1
    66   32   63 1
    67   32   64 1
    68   33   34 1
    69   33   65 1
    70   33   66 1
    71   34   35 1
    72   34   67 1
    73   34   68 1
    74   35   69 1
    75   35   70 1
