@<TRIPOS>MOLECULE
CHEMBL480420
   28    29     0     0     0
SMALL
USER_CHARGES

@<TRIPOS>ATOM
      1 C1         -0.0168    1.3895    0.0097 C.ar      1 <0>        -0.0931
      2 C2          1.1689    2.0939    0.0021 C.ar      1 <0>        -0.1412
      3 C3          2.3804    1.4162   -0.0135 C.ar      1 <0>         0.1079
      4 C4          2.4024    0.0282   -0.0212 C.ar      1 <0>        -0.1411
      5 C5          1.2199   -0.6816   -0.0137 C.ar      1 <0>        -0.0941
      6 C6          0.0021   -0.0041    0.0020 C.ar      1 <0>        -0.0540
      7 C7         -1.2717   -0.7648    0.0106 C.ar      1 <0>        -0.0556
      8 C8         -2.4903   -0.0846    0.0206 C.ar      1 <0>        -0.0763
      9 C9         -3.6777   -0.7861    0.0290 C.ar      1 <0>        -0.1461
     10 C10        -3.6692   -2.1729    0.0277 C.ar      1 <0>         0.1470
     11 C11        -2.4506   -2.8655    0.0172 C.ar      1 <0>        -0.0833
     12 C12        -1.2509   -2.1548    0.0029 C.ar      1 <0>        -0.0638
     13 C13        -2.4374   -4.3404    0.0162 C.2       1 <0>         0.1349
     14 N1         -3.5522   -4.9974    0.0250 N.2       1 <0>        -0.3051
     15 O1         -3.5395   -6.4134    0.0240 O.3       1 <0>        -0.4145
     16 O2         -4.8404   -2.8592    0.0369 O.3       1 <0>        -0.4778
     17 O3          3.5470    2.1130   -0.0218 O.3       1 <0>        -0.4995
     18 H1         -0.9590    1.9173    0.0260 H         1 <0>         0.1316
     19 H2          1.1549    3.1738    0.0081 H         1 <0>         0.1323
     20 H3          3.3464   -0.4963   -0.0334 H         1 <0>         0.1323
     21 H4          1.2377   -1.7615   -0.0204 H         1 <0>         0.1312
     22 H5         -2.5035    0.9953    0.0221 H         1 <0>         0.1347
     23 H6         -4.6173   -0.2537    0.0371 H         1 <0>         0.1378
     24 H7         -0.3087   -2.6825   -0.0096 H         1 <0>         0.1375
     25 H8         -1.4973   -4.8720    0.0081 H         1 <0>         0.1249
     26 H9         -4.4193   -6.8146    0.0310 H         1 <0>         0.4079
     27 H10        -5.1872   -3.0572   -0.8438 H         1 <0>         0.3927
     28 H11         3.8936    2.3102    0.8591 H         1 <0>         0.3929
@<TRIPOS>BOND
     1    1    6 ar
     2    1    2 ar
     3    1   18 1
     4    2    3 ar
     5    2   19 1
     6    3    4 ar
     7    3   17 1
     8    4    5 ar
     9    4   20 1
    10    5    6 ar
    11    5   21 1
    12    6    7 1
    13    7   12 ar
    14    7    8 ar
    15    8    9 ar
    16    8   22 1
    17    9   10 ar
    18    9   23 1
    19   10   11 ar
    20   10   16 1
    21   11   12 ar
    22   11   13 1
    23   12   24 1
    24   13   14 2
    25   13   25 1
    26   14   15 1
    27   15   26 1
    28   16   27 1
    29   17   28 1
