@<TRIPOS>MOLECULE
CHEMBL199140
   42    45     0     0     0
SMALL
USER_CHARGES

@<TRIPOS>ATOM
      1 C1          7.4178   -1.7175   -2.4459 C.ar      1 <0>        -0.1229
      2 C2          6.4635   -2.6906   -2.2153 C.ar      1 <0>        -0.1184
      3 C3          5.3428   -2.3949   -1.4620 C.ar      1 <0>        -0.1106
      4 C4          5.1767   -1.1261   -0.9389 C.ar      1 <0>        -0.0739
      5 C5          6.1315   -0.1533   -1.1688 C.ar      1 <0>        -0.1136
      6 C6          7.2515   -0.4486   -1.9233 C.ar      1 <0>        -0.1180
      7 C7          3.9544   -0.8034   -0.1185 C.3       1 <0>        -0.0358
      8 C8          4.2252   -1.1162    1.3306 C.2       1 <0>        -0.0601
      9 C9          3.9030   -2.2685    1.9323 C.2       1 <0>        -0.0867
     10 C10         4.3419   -2.1815    3.3754 C.3       1 <0>        -0.0507
     11 C11         4.9649   -0.8149    3.5264 C.ar      1 <0>        -0.0809
     12 C12         4.8843   -0.1998    2.2728 C.ar      1 <0>        -0.0711
     13 C13         5.3962    1.0928    2.1110 C.ar      1 <0>        -0.0782
     14 C14         5.9750    1.7423    3.1791 C.ar      1 <0>        -0.1444
     15 C15         6.0542    1.1205    4.4184 C.ar      1 <0>         0.1108
     16 C16         5.5393   -0.1598    4.5887 C.ar      1 <0>        -0.1263
     17 O1          6.6269    1.7672    5.4671 O.3       1 <0>        -0.4971
     18 C17         3.2366   -3.4194    1.2981 C.ar      1 <0>        -0.0373
     19 C18         1.9196   -3.3042    0.8441 C.ar      1 <0>        -0.0888
     20 C19         1.3007   -4.3833    0.2511 C.ar      1 <0>        -0.1427
     21 C20         1.9833   -5.5841    0.1048 C.ar      1 <0>         0.1082
     22 C21         3.2918   -5.7035    0.5548 C.ar      1 <0>        -0.1427
     23 C22         3.9213   -4.6282    1.1434 C.ar      1 <0>        -0.0860
     24 O2          1.3688   -6.6453   -0.4801 O.3       1 <0>        -0.4997
     25 H1          8.2956   -1.9499   -3.0307 H         1 <0>         0.1205
     26 H2          6.5933   -3.6819   -2.6239 H         1 <0>         0.1204
     27 H3          4.5968   -3.1549   -1.2824 H         1 <0>         0.1188
     28 H4          6.0015    0.8381   -0.7604 H         1 <0>         0.1188
     29 H5          7.9972    0.3115   -2.1032 H         1 <0>         0.1213
     30 H6          3.7156    0.2550   -0.2233 H         1 <0>         0.0825
     31 H7          3.1135   -1.4020   -0.4685 H         1 <0>         0.0853
     32 H8          3.4817   -2.2790    4.0377 H         1 <0>         0.1044
     33 H9          5.0764   -2.9568    3.5935 H         1 <0>         0.1035
     34 H10         5.3378    1.5806    1.1492 H         1 <0>         0.1257
     35 H11         6.3694    2.7396    3.0521 H         1 <0>         0.1318
     36 H12         5.6020   -0.6437    5.5522 H         1 <0>         0.1300
     37 H13         6.0070    2.2931    5.9909 H         1 <0>         0.3919
     38 H14         1.3878   -2.3712    0.9581 H         1 <0>         0.1290
     39 H15         0.2832   -4.2953   -0.1000 H         1 <0>         0.1313
     40 H16         3.8184   -6.6393    0.4391 H         1 <0>         0.1310
     41 H17         4.9403   -4.7206    1.4889 H         1 <0>         0.1281
     42 H18         1.4862   -6.6884   -1.4389 H         1 <0>         0.3923
@<TRIPOS>BOND
     1    1    6 ar
     2    1    2 ar
     3    1   25 1
     4    2    3 ar
     5    2   26 1
     6    3    4 ar
     7    3   27 1
     8    4    5 ar
     9    4    7 1
    10    5    6 ar
    11    5   28 1
    12    6   29 1
    13    7    8 1
    14    7   30 1
    15    7   31 1
    16    8   12 1
    17    8    9 2
    18    9   10 1
    19    9   18 1
    20   10   11 1
    21   10   32 1
    22   10   33 1
    23   11   16 ar
    24   11   12 ar
    25   12   13 ar
    26   13   14 ar
    27   13   34 1
    28   14   15 ar
    29   14   35 1
    30   15   16 ar
    31   15   17 1
    32   16   36 1
    33   17   37 1
    34   18   23 ar
    35   18   19 ar
    36   19   20 ar
    37   19   38 1
    38   20   21 ar
    39   20   39 1
    40   21   22 ar
    41   21   24 1
    42   22   23 ar
    43   22   40 1
    44   23   41 1
    45   24   42 1
