@<TRIPOS>MOLECULE
CHEMBL124474
   65    69     0     0     0
SMALL
USER_CHARGES

@<TRIPOS>ATOM
      1 C1          0.2993    1.2628   -0.6808 C.ar      1 <0>        -0.1153
      2 C2          1.4359    2.0210   -0.4709 C.ar      1 <0>        -0.0968
      3 C3          2.6630    1.4013   -0.3250 C.ar      1 <0>        -0.0765
      4 C4          2.7533    0.0234   -0.3884 C.ar      1 <0>        -0.0713
      5 C5          1.6165   -0.7349   -0.5974 C.ar      1 <0>        -0.1149
      6 C6          0.3897   -0.1151   -0.7448 C.ar      1 <0>        -0.0879
      7 C7         -0.8495   -0.9418   -0.9731 C.3       1 <0>        -0.0741
      8 C8         -1.0595   -1.1416   -2.4754 C.3       1 <0>        -0.1446
      9 C9         -2.3176   -1.9809   -2.7073 C.3       1 <0>        -0.0109
     10 N1         -2.5193   -2.1728   -4.1497 N.4       1 <0>        -0.3830
     11 C10        -2.7859   -0.8752   -4.7818 C.3       1 <0>        -0.0121
     12 C11        -2.9165   -1.0582   -6.2954 C.3       1 <0>        -0.1462
     13 C12        -4.0723   -2.0185   -6.5902 C.3       1 <0>        -0.1395
     14 C13        -3.8197   -3.3435   -5.8651 C.3       1 <0>        -0.1467
     15 C14        -3.6557   -3.0759   -4.3674 C.3       1 <0>        -0.0067
     16 C15         3.9022    2.2280   -0.0971 C.3       1 <0>         0.1464
     17 H1          3.7219    3.2525   -0.4226 H         1 <0>         0.0957
     18 C16         4.2588    2.2187    1.3988 C.3       1 <0>        -0.0644
     19 H2          3.4016    2.5454    1.9874 H         1 <0>         0.1393
     20 S1          5.6442    3.3784    1.6224 S.3       1 <0>        -0.0816
     21 C17         6.6920    2.9957    0.2526 C.ar      1 <0>        -0.1486
     22 C18         7.9911    3.4862    0.2397 C.ar      1 <0>        -0.0894
     23 C19         8.8298    3.2070   -0.8271 C.ar      1 <0>         0.0979
     24 C20         8.3637    2.4374   -1.8829 C.ar      1 <0>        -0.1071
     25 C21         7.0742    1.9472   -1.8691 C.ar      1 <0>        -0.1151
     26 C22         6.2239    2.2159   -0.7990 C.ar      1 <0>         0.1213
     27 O1          4.9821    1.6782   -0.8363 O.3       1 <0>        -0.3048
     28 O2         10.1028    3.6850   -0.8392 O.3       1 <0>        -0.4919
     29 C23         4.6732    0.8324    1.8200 C.ar      1 <0>        -0.0886
     30 C24         5.9210    0.3494    1.4717 C.ar      1 <0>        -0.0883
     31 C25         6.3031   -0.9213    1.8563 C.ar      1 <0>        -0.1408
     32 C26         5.4338   -1.7126    2.5930 C.ar      1 <0>         0.1149
     33 C27         4.1825   -1.2254    2.9417 C.ar      1 <0>        -0.1449
     34 C28         3.8072    0.0479    2.5591 C.ar      1 <0>        -0.0812
     35 O3          5.8072   -2.9631    2.9722 O.3       1 <0>        -0.5002
     36 H3         -0.6600    1.7467   -0.7904 H         1 <0>         0.1258
     37 H4          1.3654    3.0976   -0.4214 H         1 <0>         0.1292
     38 H5          3.7120   -0.4607   -0.2751 H         1 <0>         0.1294
     39 H6          1.6872   -1.8114   -0.6477 H         1 <0>         0.1236
     40 H7         -0.7331   -1.9120   -0.4903 H         1 <0>         0.0841
     41 H8         -1.7125   -0.4270   -0.5509 H         1 <0>         0.0839
     42 H9         -1.1759   -0.1714   -2.9583 H         1 <0>         0.0890
     43 H10        -0.1964   -1.6564   -2.8976 H         1 <0>         0.0887
     44 H11        -2.2012   -2.9511   -2.2244 H         1 <0>         0.1317
     45 H12        -3.1806   -1.4661   -2.2851 H         1 <0>         0.1300
     46 H13        -3.7132   -0.4619   -4.3849 H         1 <0>         0.1282
     47 H14        -1.9640   -0.1918   -4.5684 H         1 <0>         0.1311
     48 H15        -3.1162   -0.0939   -6.7627 H         1 <0>         0.1116
     49 H16        -1.9896   -1.4712   -6.6934 H         1 <0>         0.0872
     50 H17        -5.0072   -1.5827   -6.2379 H         1 <0>         0.0816
     51 H18        -4.1336   -2.1965   -7.6638 H         1 <0>         0.0941
     52 H19        -4.6651   -4.0128   -6.0248 H         1 <0>         0.1120
     53 H20        -2.9116   -3.8040   -6.2541 H         1 <0>         0.0873
     54 H21        -3.4759   -4.0172   -3.8481 H         1 <0>         0.1297
     55 H22        -4.5644   -2.6157   -3.9794 H         1 <0>         0.1280
     56 H23         8.3486    4.0863    1.0633 H         1 <0>         0.1406
     57 H24         9.0127    2.2210   -2.7186 H         1 <0>         0.1422
     58 H25         6.7205    1.3495   -2.6961 H         1 <0>         0.1399
     59 H26        10.7494    3.0922   -0.4325 H         1 <0>         0.3945
     60 H27         6.5974    0.9658    0.8982 H         1 <0>         0.1311
     61 H28         7.2776   -1.2984    1.5833 H         1 <0>         0.1301
     62 H29         3.5040   -1.8395    3.5151 H         1 <0>         0.1306
     63 H30         2.8349    0.4293    2.8340 H         1 <0>         0.1251
     64 H31         6.2515   -2.9976    3.8303 H         1 <0>         0.3953
     65 H32        -1.6877   -2.5769   -4.5537 H         1 <0>         0.4222
@<TRIPOS>BOND
     1    1    6 ar
     2    1    2 ar
     3    1   36 1
     4    2    3 ar
     5    2   37 1
     6    3    4 ar
     7    3   16 1
     8    4    5 ar
     9    4   38 1
    10    5    6 ar
    11    5   39 1
    12    6    7 1
    13    7    8 1
    14    7   40 1
    15    7   41 1
    16    8    9 1
    17    8   42 1
    18    8   43 1
    19    9   10 1
    20    9   44 1
    21    9   45 1
    22   10   15 1
    23   10   11 1
    24   10   65 1
    25   11   12 1
    26   11   46 1
    27   11   47 1
    28   12   13 1
    29   12   48 1
    30   12   49 1
    31   13   14 1
    32   13   50 1
    33   13   51 1
    34   14   15 1
    35   14   52 1
    36   14   53 1
    37   15   54 1
    38   15   55 1
    39   16   17 1
    40   16   27 1
    41   16   18 1
    42   18   19 1
    43   18   20 1
    44   18   29 1
    45   20   21 1
    46   21   26 ar
    47   21   22 ar
    48   22   23 ar
    49   22   56 1
    50   23   24 ar
    51   23   28 1
    52   24   25 ar
    53   24   57 1
    54   25   26 ar
    55   25   58 1
    56   26   27 1
    57   28   59 1
    58   29   34 ar
    59   29   30 ar
    60   30   31 ar
    61   30   60 1
    62   31   32 ar
    63   31   61 1
    64   32   33 ar
    65   32   35 1
    66   33   34 ar
    67   33   62 1
    68   34   63 1
    69   35   64 1
