@<TRIPOS>MOLECULE
CHEMBL385358
   45    49     0     0     0
SMALL
USER_CHARGES

@<TRIPOS>ATOM
      1 C1         -0.0184    1.5028    0.0103 C.3       1 <0>        -0.1060
      2 C2          0.0021   -0.0041    0.0020 C.2       1 <0>        -0.1998
      3 C3         -1.1517   -0.7080    0.0036 C.2       1 <0>         0.0254
      4 C4         -2.5314   -0.2290   -0.1168 C.ar      1 <0>        -0.1262
      5 C5         -3.0959    1.0353    0.1909 C.ar      1 <0>        -0.0439
      6 C6         -4.3946    1.3145   -0.0411 C.ar      1 <0>        -0.1091
      7 C7         -5.2407    0.3317   -0.6056 C.ar      1 <0>         0.1214
      8 C8         -4.6820   -0.9972   -0.9035 C.ar      1 <0>        -0.2009
      9 C9         -3.3287   -1.2496   -0.6204 C.ar      1 <0>         0.0176
     10 C10        -2.5168   -2.5256   -0.7154 C.3       1 <0>        -0.0843
     11 C11        -1.2270   -2.2252    0.0679 C.3       1 <0>        -0.0316
     12 C12        -0.0042   -2.7747   -0.6723 C.3       1 <0>        -0.1074
     13 C13         1.2573   -2.2095   -0.0112 C.3       1 <0>        -0.1698
     14 C14         1.2248   -0.7053   -0.0134 C.2       1 <0>         0.3927
     15 O1          2.2694   -0.0850   -0.0243 O.2       1 <0>        -0.4638
     16 C15        -1.3106   -2.7292    1.5101 C.3       1 <0>        -0.0598
     17 C16        -1.3827   -4.2344    1.5129 C.ar      1 <0>        -0.0880
     18 C17        -2.6107   -4.8671    1.4591 C.ar      1 <0>        -0.0877
     19 C18        -2.6781   -6.2475    1.4611 C.ar      1 <0>        -0.1504
     20 C19        -1.5151   -6.9968    1.5170 C.ar      1 <0>         0.0966
     21 C20        -0.2858   -6.3620    1.5708 C.ar      1 <0>        -0.1494
     22 C21        -0.2206   -4.9815    1.5634 C.ar      1 <0>        -0.0859
     23 F1         -1.5798   -8.3462    1.5194 F         1 <0>        -0.1394
     24 C22        -5.7190   -1.7449   -1.4401 C.2       1 <0>         0.0988
     25 N1         -6.8083   -0.9680   -1.4749 N.pl3     1 <0>        -0.4206
     26 N2         -6.5094    0.2997   -0.9636 N.2       1 <0>        -0.3031
     27 H1         -7.6774   -1.2433   -1.8063 H         1 <0>         0.4471
     28 H2          1.0042    1.8801    0.0026 H         1 <0>         0.0746
     29 H3         -0.5455    1.8639   -0.8728 H         1 <0>         0.0687
     30 H4         -0.5286    1.8543    0.9071 H         1 <0>         0.0688
     31 H5         -2.4662    1.7979    0.6247 H         1 <0>         0.1317
     32 H6         -4.7892    2.2893    0.2047 H         1 <0>         0.1345
     33 H7         -3.0560   -3.3542   -0.2562 H         1 <0>         0.0942
     34 H8         -2.2853   -2.7521   -1.7562 H         1 <0>         0.0949
     35 H9          0.0047   -3.8628   -0.6080 H         1 <0>         0.0858
     36 H10        -0.0395   -2.4667   -1.7173 H         1 <0>         0.0769
     37 H11         1.3171   -2.5701    1.0157 H         1 <0>         0.1009
     38 H12         2.1345   -2.5487   -0.5621 H         1 <0>         0.0973
     39 H13        -0.4260   -2.4068    2.0595 H         1 <0>         0.0837
     40 H14        -2.2025   -2.3218    1.9862 H         1 <0>         0.0853
     41 H15        -3.5177   -4.2825    1.4158 H         1 <0>         0.1329
     42 H16        -3.6376   -6.7415    1.4194 H         1 <0>         0.1353
     43 H17         0.6220   -6.9454    1.6148 H         1 <0>         0.1365
     44 H18         0.7383   -4.4862    1.6009 H         1 <0>         0.1336
     45 H19        -5.6585   -2.7712   -1.7710 H         1 <0>         0.1915
@<TRIPOS>BOND
     1    1    2 1
     2    1   28 1
     3    1   29 1
     4    1   30 1
     5    2   14 1
     6    2    3 2
     7    3   11 1
     8    3    4 1
     9    4    9 ar
    10    4    5 ar
    11    5    6 ar
    12    5   31 1
    13    6    7 ar
    14    6   32 1
    15    7    8 ar
    16    7   26 2
    17    8    9 ar
    18    8   24 2
    19    9   10 1
    20   10   11 1
    21   10   33 1
    22   10   34 1
    23   11   12 1
    24   11   16 1
    25   12   13 1
    26   12   35 1
    27   12   36 1
    28   13   14 1
    29   13   37 1
    30   13   38 1
    31   14   15 2
    32   16   17 1
    33   16   39 1
    34   16   40 1
    35   17   22 ar
    36   17   18 ar
    37   18   19 ar
    38   18   41 1
    39   19   20 ar
    40   19   42 1
    41   20   21 ar
    42   20   23 1
    43   21   22 ar
    44   21   43 1
    45   22   44 1
    46   24   45 1
    47   24   25 1
    48   25   27 1
    49   25   26 1
