@<TRIPOS>MOLECULE
CHEMBL241257
   88    92     0     0     0
SMALL
USER_CHARGES

@<TRIPOS>ATOM
      1 C1         -0.0187    1.5258    0.0104 C.3       1 <0>        -0.1649
      2 C2          0.0021   -0.0041    0.0020 C.3       1 <0>         0.1420
      3 H1         -1.0205   -0.3814    0.0098 H         1 <0>         0.0894
      4 C3          0.7421   -0.5109    1.2415 C.3       1 <0>        -0.1219
      5 C4          0.6554   -2.0374    1.2986 C.3       1 <0>        -0.0786
      6 C5          1.3843   -2.5366    2.5195 C.ar      1 <0>        -0.0926
      7 C6          2.7308   -2.8411    2.4430 C.ar      1 <0>        -0.1007
      8 C7          3.4011   -3.2993    3.5606 C.ar      1 <0>        -0.1428
      9 C8          2.7222   -3.4534    4.7606 C.ar      1 <0>         0.1012
     10 C9          1.3712   -3.1468    4.8349 C.ar      1 <0>        -0.1423
     11 C10         0.7066   -2.6840    3.7157 C.ar      1 <0>        -0.1005
     12 O1          3.3793   -3.9045    5.8614 O.3       1 <0>        -0.5004
     13 N1          0.6878   -0.4765   -1.2033 N.am      1 <0>        -0.7287
     14 C11         0.0062   -0.6081   -2.3585 C.2       1 <0>         0.5133
     15 O2         -1.1748   -0.3355   -2.4003 O.2       1 <0>        -0.5248
     16 C12         0.7116   -1.0941   -3.5984 C.3       1 <0>        -0.0697
     17 C13        -0.2670   -1.1518   -4.7431 C.2       1 <0>        -0.1363
     18 C14        -1.1025   -2.2917   -5.1166 C.ar      1 <0>        -0.0527
     19 C15        -1.2664   -3.5823   -4.6011 C.ar      1 <0>        -0.0995
     20 C16        -2.1502   -4.4420   -5.1882 C.ar      1 <0>        -0.1066
     21 C17        -2.8897   -4.0477   -6.2951 C.ar      1 <0>        -0.1957
     22 C18        -2.7449   -2.7784   -6.8226 C.ar      1 <0>         0.1201
     23 C19        -1.8479   -1.8840   -6.2372 C.ar      1 <0>         0.0839
     24 N2         -1.4874   -0.5841   -6.5225 N.pl3     1 <0>        -0.5770
     25 H2         -1.8479   -0.0516   -7.2488 H         1 <0>         0.4176
     26 C20        -0.5442   -0.1541   -5.6188 C.2       1 <0>         0.1461
     27 C21         0.0746    1.1892   -5.6056 C.ar      1 <0>        -0.0418
     28 C22         0.2192    1.8822   -4.4031 C.ar      1 <0>        -0.0927
     29 C23         0.7977    3.1347   -4.3974 C.ar      1 <0>        -0.1164
     30 C24         1.2337    3.7039   -5.5807 C.ar      1 <0>        -0.1073
     31 C25         1.0929    3.0222   -6.7764 C.ar      1 <0>        -0.1180
     32 C26         0.5217    1.7665   -6.7948 C.ar      1 <0>        -0.1056
     33 O3         -3.4735   -2.4028   -7.9074 O.3       1 <0>        -0.3234
     34 C27        -4.3714   -3.3715   -8.4529 C.3       1 <0>         0.0611
     35 C28        -5.0975   -2.7717   -9.6587 C.3       1 <0>        -0.1202
     36 C29        -6.0589   -3.8088  -10.2427 C.3       1 <0>        -0.1144
     37 C30        -6.7850   -3.2091  -11.4485 C.3       1 <0>        -0.1479
     38 C31        -7.7464   -4.2462  -12.0325 C.3       1 <0>        -0.0104
     39 N3         -8.4436   -3.6703  -13.1903 N.4       1 <0>        -0.3831
     40 C32        -9.2865   -2.5537  -12.7463 C.3       1 <0>        -0.0122
     41 C33        -9.9522   -1.8988  -13.9585 C.3       1 <0>        -0.1461
     42 C34       -10.8157   -2.9360  -14.6821 C.3       1 <0>        -0.1397
     43 C35        -9.9406   -4.1297  -15.0750 C.3       1 <0>        -0.1465
     44 C36        -9.2753   -4.7020  -13.8215 C.3       1 <0>        -0.0068
     45 H3          1.0039    1.9031    0.0027 H         1 <0>         0.0580
     46 H4         -0.5459    1.8868   -0.8726 H         1 <0>         0.0601
     47 H5         -0.5289    1.8773    0.9072 H         1 <0>         0.0663
     48 H6          1.7879   -0.2080    1.1895 H         1 <0>         0.0716
     49 H7          0.2852   -0.0874    2.1360 H         1 <0>         0.0815
     50 H8         -0.3904   -2.3402    1.3506 H         1 <0>         0.0740
     51 H9          1.1123   -2.4609    0.4042 H         1 <0>         0.0737
     52 H10         3.2589   -2.7209    1.5086 H         1 <0>         0.1254
     53 H11         4.4528   -3.5377    3.5002 H         1 <0>         0.1286
     54 H12         0.8404   -3.2660    5.7679 H         1 <0>         0.1287
     55 H13        -0.3440   -2.4409    3.7741 H         1 <0>         0.1261
     56 H14         3.7706   -3.2036    6.4006 H         1 <0>         0.3919
     57 H15         1.6324   -0.6946   -1.1699 H         1 <0>         0.3997
     58 H16         1.5220   -0.4092   -3.8474 H         1 <0>         0.1016
     59 H17         1.1190   -2.0889   -3.4183 H         1 <0>         0.1032
     60 H18        -0.6949   -3.8979   -3.7408 H         1 <0>         0.1232
     61 H19        -2.2747   -5.4374   -4.7883 H         1 <0>         0.1261
     62 H20        -3.5844   -4.7394   -6.7483 H         1 <0>         0.1272
     63 H21        -0.1214    1.4392   -3.4788 H         1 <0>         0.1317
     64 H22         0.9102    3.6721   -3.4674 H         1 <0>         0.1277
     65 H23         1.6856    4.6848   -5.5710 H         1 <0>         0.1268
     66 H24         1.4346    3.4723   -7.6967 H         1 <0>         0.1271
     67 H25         0.4167    1.2333   -7.7281 H         1 <0>         0.1210
     68 H26        -3.8097   -4.2510   -8.7676 H         1 <0>         0.0642
     69 H27        -5.1007   -3.6580   -7.6952 H         1 <0>         0.0640
     70 H28        -5.6592   -1.8922   -9.3440 H         1 <0>         0.0772
     71 H29        -4.3682   -2.4852  -10.4164 H         1 <0>         0.0774
     72 H30        -5.4972   -4.6883  -10.5574 H         1 <0>         0.0787
     73 H31        -6.7882   -4.0954   -9.4850 H         1 <0>         0.0784
     74 H32        -7.3467   -2.3295  -11.1339 H         1 <0>         0.0888
     75 H33        -6.0557   -2.9225  -12.2062 H         1 <0>         0.0888
     76 H34        -7.1847   -5.1257  -12.3472 H         1 <0>         0.1316
     77 H35        -8.4758   -4.5327  -11.2749 H         1 <0>         0.1299
     78 H36       -10.0541   -2.9259  -12.0678 H         1 <0>         0.1283
     79 H37        -8.6710   -1.8179  -12.2286 H         1 <0>         0.1310
     80 H38       -10.5790   -1.0711  -13.6265 H         1 <0>         0.1118
     81 H39        -9.1854   -1.5260  -14.6376 H         1 <0>         0.0872
     82 H40       -11.6140   -3.2715  -14.0200 H         1 <0>         0.0817
     83 H41       -11.2472   -2.4898  -15.5781 H         1 <0>         0.0942
     84 H42       -10.5591   -4.8967  -15.5412 H         1 <0>         0.1122
     85 H43        -9.1736   -3.8032  -15.7773 H         1 <0>         0.0874
     86 H44        -8.6516   -5.5522  -14.0976 H         1 <0>         0.1298
     87 H45       -10.0431   -5.0284  -13.1200 H         1 <0>         0.1280
     88 H46        -7.7651   -3.3327  -13.8564 H         1 <0>         0.4221
@<TRIPOS>BOND
     1    1    2 1
     2    1   45 1
     3    1   46 1
     4    1   47 1
     5    2    3 1
     6    2    4 1
     7    2   13 1
     8    4    5 1
     9    4   48 1
    10    4   49 1
    11    5    6 1
    12    5   50 1
    13    5   51 1
    14    6   11 ar
    15    6    7 ar
    16    7    8 ar
    17    7   52 1
    18    8    9 ar
    19    8   53 1
    20    9   10 ar
    21    9   12 1
    22   10   11 ar
    23   10   54 1
    24   11   55 1
    25   12   56 1
    26   13   14 am
    27   13   57 1
    28   14   15 2
    29   14   16 1
    30   16   17 1
    31   16   58 1
    32   16   59 1
    33   17   26 2
    34   17   18 1
    35   18   23 ar
    36   18   19 ar
    37   19   20 ar
    38   19   60 1
    39   20   21 ar
    40   20   61 1
    41   21   22 ar
    42   21   62 1
    43   22   23 ar
    44   22   33 1
    45   23   24 1
    46   24   25 1
    47   24   26 1
    48   26   27 1
    49   27   32 ar
    50   27   28 ar
    51   28   29 ar
    52   28   63 1
    53   29   30 ar
    54   29   64 1
    55   30   31 ar
    56   30   65 1
    57   31   32 ar
    58   31   66 1
    59   32   67 1
    60   33   34 1
    61   34   35 1
    62   34   68 1
    63   34   69 1
    64   35   36 1
    65   35   70 1
    66   35   71 1
    67   36   37 1
    68   36   72 1
    69   36   73 1
    70   37   38 1
    71   37   74 1
    72   37   75 1
    73   38   39 1
    74   38   76 1
    75   38   77 1
    76   39   44 1
    77   39   40 1
    78   39   88 1
    79   40   41 1
    80   40   78 1
    81   40   79 1
    82   41   42 1
    83   41   80 1
    84   41   81 1
    85   42   43 1
    86   42   82 1
    87   42   83 1
    88   43   44 1
    89   43   84 1
    90   43   85 1
    91   44   86 1
    92   44   87 1
