@<TRIPOS>MOLECULE
CHEMBL293297
   66    70     0     0     0
SMALL
USER_CHARGES

@<TRIPOS>ATOM
      1 C1          1.3828   -1.4325   -1.4952 C.ar      1 <0>        -0.0850
      2 C2          2.6872   -1.8134   -1.7439 C.ar      1 <0>        -0.1433
      3 C3          3.1399   -3.0534   -1.3172 C.ar      1 <0>         0.1139
      4 C4          2.2808   -3.9080   -0.6416 C.ar      1 <0>        -0.1463
      5 C5          0.9773   -3.5224   -0.3954 C.ar      1 <0>        -0.0775
      6 C6          0.5286   -2.2860   -0.8218 C.ar      1 <0>        -0.1064
      7 C7         -0.8938   -1.8678   -0.5515 C.3       1 <0>         0.2008
      8 C8         -1.8564   -2.7444   -1.3632 C.3       1 <0>        -0.1267
      9 C9         -3.2858   -2.2570   -1.1279 C.3       1 <0>        -0.0770
     10 C10        -3.5711   -2.1515    0.3471 C.ar      1 <0>        -0.1212
     11 C11        -4.8881   -2.1537    0.7758 C.ar      1 <0>        -0.1031
     12 C12        -5.1832   -2.0556    2.1259 C.ar      1 <0>         0.0656
     13 C13        -4.1584   -1.9535    3.0554 C.ar      1 <0>        -0.1079
     14 C14        -2.8448   -1.9514    2.6321 C.ar      1 <0>        -0.1605
     15 C15        -2.5483   -2.0524    1.2772 C.ar      1 <0>         0.1995
     16 N1         -1.2062   -2.0570    0.8717 N.pl3     1 <0>        -0.5838
     17 C16        -0.1813   -2.2392    1.8068 C.ar      1 <0>         0.1568
     18 C17         0.7022   -1.2030    2.0802 C.ar      1 <0>        -0.0827
     19 C18         1.7131   -1.3837    3.0035 C.ar      1 <0>        -0.1252
     20 C19         1.8466   -2.5996    3.6575 C.ar      1 <0>         0.1055
     21 C20         0.9649   -3.6352    3.3848 C.ar      1 <0>        -0.1871
     22 C21        -0.0503   -3.4545    2.4663 C.ar      1 <0>        -0.0879
     23 O1          2.8426   -2.7767    4.5663 O.3       1 <0>        -0.3278
     24 C22         2.9212   -4.0541    5.2021 C.3       1 <0>         0.0258
     25 C23         4.0947   -4.0638    6.1839 C.3       1 <0>        -0.0010
     26 N2          3.8348   -3.1060    7.2669 N.4       1 <0>        -0.3839
     27 C24         2.6676   -3.5480    8.0394 C.3       1 <0>        -0.0137
     28 C25         2.3433   -2.5125    9.1183 C.3       1 <0>        -0.1453
     29 C26         3.5479   -2.3616   10.0518 C.3       1 <0>        -0.1391
     30 C27         4.7766   -1.9727    9.2248 C.3       1 <0>        -0.1467
     31 C28         5.0108   -3.0282    8.1419 C.3       1 <0>        -0.0069
     32 O2         -6.4785   -2.0588    2.5403 O.3       1 <0>        -0.4977
     33 O3          4.4225   -3.4306   -1.5609 O.3       1 <0>        -0.4973
     34 H1          1.0312   -0.4654   -1.8232 H         1 <0>         0.1298
     35 H2          3.3540   -1.1465   -2.2703 H         1 <0>         0.1320
     36 H3          2.6307   -4.8740   -0.3087 H         1 <0>         0.1261
     37 H4          0.3081   -4.1873    0.1305 H         1 <0>         0.1235
     38 H5         -1.0285   -0.8208   -0.8230 H         1 <0>         0.0826
     39 H6         -1.6143   -2.6679   -2.4232 H         1 <0>         0.0866
     40 H7         -1.7663   -3.7816   -1.0402 H         1 <0>         0.0736
     41 H8         -3.4126   -1.2779   -1.5897 H         1 <0>         0.0797
     42 H9         -3.9848   -2.9607   -1.5800 H         1 <0>         0.0837
     43 H10        -5.6883   -2.2327    0.0548 H         1 <0>         0.1314
     44 H11        -4.3880   -1.8755    4.1078 H         1 <0>         0.1277
     45 H12        -2.0458   -1.8717    3.3544 H         1 <0>         0.1216
     46 H13         0.5989   -0.2565    1.5706 H         1 <0>         0.1342
     47 H14         2.4002   -0.5780    3.2163 H         1 <0>         0.1337
     48 H15         1.0701   -4.5819    3.8940 H         1 <0>         0.1284
     49 H16        -0.7396   -4.2593    2.2576 H         1 <0>         0.1302
     50 H17         1.9944   -4.2491    5.7416 H         1 <0>         0.0860
     51 H18         3.0721   -4.8266    4.4480 H         1 <0>         0.1084
     52 H19         4.2097   -5.0635    6.6027 H         1 <0>         0.1486
     53 H20         5.0084   -3.7817    5.6608 H         1 <0>         0.1423
     54 H21         1.8120   -3.6580    7.3732 H         1 <0>         0.1276
     55 H22         2.8859   -4.5065    8.5103 H         1 <0>         0.1301
     56 H23         2.1246   -1.5536    8.6485 H         1 <0>         0.0880
     57 H24         1.4775   -2.8434    9.6919 H         1 <0>         0.1123
     58 H25         3.3433   -1.5844   10.7882 H         1 <0>         0.0948
     59 H26         3.7354   -3.3072   10.5607 H         1 <0>         0.0821
     60 H27         4.6084   -1.0026    8.7571 H         1 <0>         0.0880
     61 H28         5.6502   -1.9178    9.8744 H         1 <0>         0.1131
     62 H29         5.1791   -3.9978    8.6106 H         1 <0>         0.1291
     63 H30         5.8851   -2.7545    7.5513 H         1 <0>         0.1309
     64 H31        -6.8287   -2.9401    2.7295 H         1 <0>         0.3871
     65 H32         5.0445   -3.1837   -0.8629 H         1 <0>         0.3903
     66 H33         3.6496   -2.1959    6.8725 H         1 <0>         0.4293
@<TRIPOS>BOND
     1    1    6 ar
     2    1    2 ar
     3    1   34 1
     4    2    3 ar
     5    2   35 1
     6    3    4 ar
     7    3   33 1
     8    4    5 ar
     9    4   36 1
    10    5    6 ar
    11    5   37 1
    12    6    7 1
    13    7   16 1
    14    7    8 1
    15    7   38 1
    16    8    9 1
    17    8   39 1
    18    8   40 1
    19    9   10 1
    20    9   41 1
    21    9   42 1
    22   10   15 ar
    23   10   11 ar
    24   11   12 ar
    25   11   43 1
    26   12   13 ar
    27   12   32 1
    28   13   14 ar
    29   13   44 1
    30   14   15 ar
    31   14   45 1
    32   15   16 1
    33   16   17 1
    34   17   22 ar
    35   17   18 ar
    36   18   19 ar
    37   18   46 1
    38   19   20 ar
    39   19   47 1
    40   20   21 ar
    41   20   23 1
    42   21   22 ar
    43   21   48 1
    44   22   49 1
    45   23   24 1
    46   24   25 1
    47   24   50 1
    48   24   51 1
    49   25   26 1
    50   25   52 1
    51   25   53 1
    52   26   31 1
    53   26   27 1
    54   26   66 1
    55   27   28 1
    56   27   54 1
    57   27   55 1
    58   28   29 1
    59   28   56 1
    60   28   57 1
    61   29   30 1
    62   29   58 1
    63   29   59 1
    64   30   31 1
    65   30   60 1
    66   30   61 1
    67   31   62 1
    68   31   63 1
    69   32   64 1
    70   33   65 1
