@<TRIPOS>MOLECULE
CHEMBL222454
   42    45     0     0     0
SMALL
USER_CHARGES

@<TRIPOS>ATOM
      1 C1         -0.0168    1.3848    0.0097 C.ar      1 <0>        -0.1485
      2 C2          1.1488    2.0959    0.0023 C.ar      1 <0>        -0.0336
      3 C3          2.3730    1.4233   -0.0129 C.ar      1 <0>        -0.1549
      4 C4          2.3984    0.0169   -0.0207 C.ar      1 <0>         0.1370
      5 C5          1.1967   -0.6894   -0.0130 C.ar      1 <0>        -0.0622
      6 C6          0.0021   -0.0041    0.0020 C.ar      1 <0>        -0.0556
      7 Cl1         1.2057   -2.4254   -0.0218 Cl        1 <0>        -0.0611
      8 N1          3.7175   -0.3586   -0.0352 N.pl3     1 <0>        -0.3839
      9 N2          4.5229    0.7847   -0.0368 N.2       1 <0>        -0.2258
     10 C7          3.7733    1.8601   -0.0239 C.2       1 <0>         0.1354
     11 C8          4.2534    3.2623   -0.0214 C.ar      1 <0>        -0.0267
     12 C9          3.5350    4.2481   -0.6972 C.ar      1 <0>        -0.0775
     13 C10         3.9841    5.5518   -0.6925 C.ar      1 <0>        -0.1437
     14 C11         5.1505    5.8834   -0.0164 C.ar      1 <0>         0.1180
     15 C12         5.8684    4.9043    0.6570 C.ar      1 <0>        -0.1444
     16 C13         5.4214    3.5998    0.6614 C.ar      1 <0>        -0.0701
     17 O1          5.5907    7.1690   -0.0141 O.3       1 <0>        -0.4987
     18 C14         4.2059   -1.7398   -0.0465 C.3       1 <0>         0.1532
     19 C15         5.0680   -1.9860    1.1933 C.3       1 <0>        -0.1265
     20 C16         5.5780   -3.4285    1.1815 C.3       1 <0>        -0.1164
     21 C17         6.4159   -3.6629   -0.0771 C.3       1 <0>        -0.1236
     22 C18         5.5538   -3.4166   -1.3168 C.3       1 <0>        -0.1165
     23 C19         5.0438   -1.9742   -1.3051 C.3       1 <0>        -0.1267
     24 H1         -0.9620    1.9069    0.0260 H         1 <0>         0.1397
     25 H2          1.1243    3.1757    0.0080 H         1 <0>         0.1352
     26 H3         -0.9288   -0.5517    0.0083 H         1 <0>         0.1425
     27 H4          2.6279    3.9907   -1.2239 H         1 <0>         0.1326
     28 H5          3.4282    6.3158   -1.2157 H         1 <0>         0.1356
     29 H6          6.7756    5.1655    1.1816 H         1 <0>         0.1344
     30 H7          5.9778    2.8395    1.1895 H         1 <0>         0.1323
     31 H8          5.2489    7.7005    0.7179 H         1 <0>         0.3940
     32 H9          3.3582   -2.4249   -0.0415 H         1 <0>         0.1158
     33 H10         5.9157   -1.3008    1.1883 H         1 <0>         0.0764
     34 H11         4.4711   -1.8190    2.0899 H         1 <0>         0.0660
     35 H12         6.1922   -3.6039    2.0647 H         1 <0>         0.0714
     36 H13         4.7303   -4.1136    1.1865 H         1 <0>         0.0647
     37 H14         7.2636   -2.9777   -0.0820 H         1 <0>         0.0659
     38 H15         6.7793   -4.6905   -0.0854 H         1 <0>         0.0678
     39 H16         6.1507   -3.5836   -2.2135 H         1 <0>         0.0714
     40 H17         4.7061   -4.1018   -1.3119 H         1 <0>         0.0647
     41 H18         4.4296   -1.7987   -2.1883 H         1 <0>         0.0660
     42 H19         5.8915   -1.2890   -1.3100 H         1 <0>         0.0766
@<TRIPOS>BOND
     1    1    6 ar
     2    1    2 ar
     3    1   24 1
     4    2    3 ar
     5    2   25 1
     6    3   10 1
     7    3    4 ar
     8    4    5 ar
     9    4    8 1
    10    5    6 ar
    11    5    7 1
    12    6   26 1
    13    8    9 1
    14    8   18 1
    15    9   10 2
    16   10   11 1
    17   11   16 ar
    18   11   12 ar
    19   12   13 ar
    20   12   27 1
    21   13   14 ar
    22   13   28 1
    23   14   15 ar
    24   14   17 1
    25   15   16 ar
    26   15   29 1
    27   16   30 1
    28   17   31 1
    29   18   23 1
    30   18   19 1
    31   18   32 1
    32   19   20 1
    33   19   33 1
    34   19   34 1
    35   20   21 1
    36   20   35 1
    37   20   36 1
    38   21   22 1
    39   21   37 1
    40   21   38 1
    41   22   23 1
    42   22   39 1
    43   22   40 1
    44   23   41 1
    45   23   42 1
