@<TRIPOS>MOLECULE
CHEMBL51577
   72    76     0     0     0
SMALL
USER_CHARGES

@<TRIPOS>ATOM
      1 C1         -0.5981    1.5475   -0.6077 C.3       1 <0>        -0.1493
      2 C2         -0.5246    0.0193   -0.5940 C.3       1 <0>        -0.0270
      3 C3         -1.8392   -0.6157   -0.1270 C.3       1 <0>        -0.0853
      4 C4         -2.0986   -0.2706    1.3371 C.3       1 <0>        -0.0235
      5 C5         -0.9314   -0.7810    2.1604 C.2       1 <0>        -0.0386
      6 C6         -1.1922   -1.5338    3.2242 C.2       1 <0>        -0.1333
      7 C7         -2.6116   -1.8918    3.5981 C.3       1 <0>        -0.0777
      8 C8         -2.6521   -3.3685    4.0034 C.3       1 <0>        -0.1656
      9 C9         -1.5797   -3.6542    5.0195 C.2       1 <0>         0.3876
     10 O1         -1.7998   -4.4515    5.9090 O.2       1 <0>        -0.4722
     11 C10        -0.3277   -3.0171    4.9597 C.2       1 <0>        -0.2504
     12 C11        -0.1074   -2.0182    4.0793 C.2       1 <0>         0.0281
     13 C12         1.2417   -1.3564    3.9427 C.3       1 <0>        -0.0954
     14 C13         1.5405   -1.2011    2.4527 C.3       1 <0>        -0.1142
     15 C14         0.4557   -0.4091    1.7373 C.3       1 <0>        -0.0423
     16 C15         0.6481   -0.4963    0.2542 C.3       1 <0>        -0.0718
     17 C16         0.8369   -1.9442   -0.2320 C.3       1 <0>        -0.1173
     18 C17         0.6230   -1.8373   -1.7603 C.3       1 <0>        -0.1543
     19 C18        -0.2168   -0.5680   -1.9990 C.3       1 <0>         0.1384
     20 C19         0.5799    0.4414   -2.8280 C.3       1 <0>        -0.1402
     21 C20         0.8749   -0.1512   -4.2074 C.3       1 <0>        -0.1270
     22 C21         1.6716    0.8583   -5.0364 C.3       1 <0>         0.0762
     23 O2          1.9470    0.3048   -6.3248 O.3       1 <0>        -0.5762
     24 O3         -1.4338   -0.9030   -2.6688 O.3       1 <0>        -0.5522
     25 C22        -2.2158    1.2237    1.4938 C.ar      1 <0>        -0.1181
     26 C23        -3.0048    1.9491    0.6200 C.ar      1 <0>        -0.0593
     27 C24        -3.1145    3.3186    0.7608 C.ar      1 <0>        -0.1962
     28 C25        -2.4311    3.9673    1.7814 C.ar      1 <0>         0.2133
     29 C26        -1.6394    3.2355    2.6574 C.ar      1 <0>        -0.1995
     30 C27        -1.5386    1.8656    2.5144 C.ar      1 <0>        -0.0717
     31 N1         -2.5394    5.3522    1.9264 N.pl3     1 <0>        -0.6396
     32 C28        -3.4626    6.1077    1.0760 C.3       1 <0>         0.0929
     33 C29        -1.7298    6.0494    2.9288 C.3       1 <0>         0.0890
     34 H1          0.2561    1.9474   -1.1541 H         1 <0>         0.0498
     35 H2         -1.5209    1.8625   -1.0949 H         1 <0>         0.0634
     36 H3         -0.5818    1.9212    0.4160 H         1 <0>         0.0770
     37 H4         -2.6595   -0.2388   -0.7379 H         1 <0>         0.0770
     38 H5         -1.7768   -1.6983   -0.2375 H         1 <0>         0.0687
     39 H6         -3.0198   -0.7488    1.6697 H         1 <0>         0.0968
     40 H7         -2.9366   -1.2736    4.4349 H         1 <0>         0.0799
     41 H8         -3.2675   -1.7289    2.7429 H         1 <0>         0.0920
     42 H9         -3.6273   -3.5991    4.4323 H         1 <0>         0.0940
     43 H10        -2.4904   -3.9898    3.1225 H         1 <0>         0.0988
     44 H11         0.4641   -3.3293    5.6245 H         1 <0>         0.1336
     45 H12         1.2213   -0.3760    4.4187 H         1 <0>         0.0878
     46 H13         2.0061   -1.9777    4.4093 H         1 <0>         0.0847
     47 H14         2.4934   -0.6856    2.3335 H         1 <0>         0.0751
     48 H15         1.6145   -2.1902    2.0005 H         1 <0>         0.0729
     49 H16         0.6005    0.6390    1.9994 H         1 <0>         0.0838
     50 H17         1.5424    0.0674   -0.0117 H         1 <0>         0.0718
     51 H18         1.8439   -2.2965   -0.0085 H         1 <0>         0.0682
     52 H19         0.0906   -2.6004    0.2157 H         1 <0>         0.0706
     53 H20         1.5842   -1.7499   -2.2667 H         1 <0>         0.0705
     54 H21         0.0869   -2.7137   -2.1245 H         1 <0>         0.0725
     55 H22        -0.0009    1.3566   -2.9424 H         1 <0>         0.0774
     56 H23         1.5182    0.6675   -2.3215 H         1 <0>         0.0730
     57 H24         1.4557   -1.0664   -4.0931 H         1 <0>         0.0722
     58 H25        -0.0635   -0.3773   -4.7139 H         1 <0>         0.0702
     59 H26         1.0907    1.7735   -5.1508 H         1 <0>         0.0453
     60 H27         2.6099    1.0844   -4.5299 H         1 <0>         0.0446
     61 H28         2.4505    0.8916   -6.9054 H         1 <0>         0.3814
     62 H29        -1.3070   -1.2751   -3.5523 H         1 <0>         0.3725
     63 H30        -3.5356    1.4442   -0.1735 H         1 <0>         0.1213
     64 H31        -3.7306    3.8846    0.0778 H         1 <0>         0.1202
     65 H32        -1.1064    3.7368    3.4518 H         1 <0>         0.1203
     66 H33        -0.9267    1.2955    3.1978 H         1 <0>         0.1193
     67 H34        -4.4381    6.1641    1.5591 H         1 <0>         0.0477
     68 H35        -3.0742    7.1146    0.9229 H         1 <0>         0.0651
     69 H36        -3.5624    5.6066    0.1132 H         1 <0>         0.0689
     70 H37        -1.1766    5.3199    3.5203 H         1 <0>         0.0775
     71 H38        -1.0292    6.7182    2.4288 H         1 <0>         0.0515
     72 H39        -2.3813    6.6287    3.5830 H         1 <0>         0.0549
@<TRIPOS>BOND
     1    1    2 1
     2    1   34 1
     3    1   35 1
     4    1   36 1
     5    2   16 1
     6    2   19 1
     7    2    3 1
     8    3    4 1
     9    3   37 1
    10    3   38 1
    11    4    5 1
    12    4   25 1
    13    4   39 1
    14    5   15 1
    15    5    6 2
    16    6   12 1
    17    6    7 1
    18    7    8 1
    19    7   40 1
    20    7   41 1
    21    8    9 1
    22    8   42 1
    23    8   43 1
    24    9   10 2
    25    9   11 1
    26   11   12 2
    27   11   44 1
    28   12   13 1
    29   13   14 1
    30   13   45 1
    31   13   46 1
    32   14   15 1
    33   14   47 1
    34   14   48 1
    35   15   16 1
    36   15   49 1
    37   16   17 1
    38   16   50 1
    39   17   18 1
    40   17   51 1
    41   17   52 1
    42   18   19 1
    43   18   53 1
    44   18   54 1
    45   19   20 1
    46   19   24 1
    47   20   21 1
    48   20   55 1
    49   20   56 1
    50   21   22 1
    51   21   57 1
    52   21   58 1
    53   22   23 1
    54   22   59 1
    55   22   60 1
    56   23   61 1
    57   24   62 1
    58   25   30 ar
    59   25   26 ar
    60   26   27 ar
    61   26   63 1
    62   27   28 ar
    63   27   64 1
    64   28   29 ar
    65   28   31 1
    66   29   30 ar
    67   29   65 1
    68   30   66 1
    69   31   32 1
    70   31   33 1
    71   32   67 1
    72   32   68 1
    73   32   69 1
    74   33   70 1
    75   33   71 1
    76   33   72 1
