@<TRIPOS>MOLECULE
CHEMBL185480
   68    73     0     0     0
SMALL
USER_CHARGES

@<TRIPOS>ATOM
      1 C1          1.0091   -0.1754   -0.6172 C.ar      1 <0>        -0.0897
      2 C2          2.1203    0.6437   -0.6705 C.ar      1 <0>        -0.1414
      3 C3          2.0362    1.9548   -0.2249 C.ar      1 <0>         0.1129
      4 C4          0.8358    2.4400    0.2733 C.ar      1 <0>        -0.1429
      5 C5         -0.2725    1.6169    0.3244 C.ar      1 <0>        -0.0791
      6 C6         -0.1861    0.3106   -0.1202 C.ar      1 <0>        -0.0866
      7 C7         -1.3968   -0.5849   -0.0637 C.3       1 <0>        -0.0613
      8 H1         -2.2957    0.0141    0.0825 H         1 <0>         0.1391
      9 C8         -1.2480   -1.5967    1.0849 C.3       1 <0>         0.1566
     10 H2         -2.0635   -2.3187    1.0427 H         1 <0>         0.0927
     11 O1         -0.0076   -2.2732    0.9488 O.3       1 <0>        -0.3030
     12 C9          0.2985   -2.9950   -0.1548 C.ar      1 <0>         0.1268
     13 C10         1.2539   -4.0000   -0.0234 C.ar      1 <0>        -0.1165
     14 C11         1.6254   -4.7638   -1.1105 C.ar      1 <0>        -0.1071
     15 C12         1.0498   -4.5379   -2.3523 C.ar      1 <0>         0.0914
     16 C13         0.0939   -3.5451   -2.4938 C.ar      1 <0>        -0.0900
     17 C14        -0.2855   -2.7809   -1.3983 C.ar      1 <0>        -0.1472
     18 S1         -1.5330   -1.5436   -1.6053 S.3       1 <0>        -0.0935
     19 O2          1.4220   -5.2865   -3.4247 O.3       1 <0>        -0.4927
     20 C15        -1.2857   -0.8702    2.4046 C.ar      1 <0>        -0.1306
     21 C16        -0.1557   -0.2223    2.8684 C.ar      1 <0>        -0.0360
     22 C17        -0.1875    0.4440    4.0781 C.ar      1 <0>        -0.1531
     23 C18        -1.3548    0.4631    4.8276 C.ar      1 <0>         0.1482
     24 C19        -2.4874   -0.1873    4.3599 C.ar      1 <0>        -0.2140
     25 C20        -2.4519   -0.8478    3.1471 C.ar      1 <0>        -0.0586
     26 O3         -1.3885    1.1176    6.0181 O.3       1 <0>        -0.2934
     27 C21        -2.6241    1.0955    6.7358 C.3       1 <0>         0.0652
     28 C22        -2.4698    1.8785    8.0411 C.3       1 <0>         0.0555
     29 N1         -2.1866    3.2874    7.7364 N.3       1 <0>        -0.5326
     30 C23        -1.5733    3.9618    8.8876 C.3       1 <0>         0.0634
     31 C24        -1.1557    5.3789    8.4870 C.3       1 <0>        -0.1159
     32 C25        -2.3870    6.1512    8.0081 C.3       1 <0>         0.2563
     33 C26        -3.0415    5.4028    6.8448 C.3       1 <0>        -0.1310
     34 C27        -3.4013    3.9850    7.2958 C.3       1 <0>         0.0593
     35 O4         -1.9916    7.4618    7.5732 O.3       1 <0>        -0.3695
     36 C28        -3.0843    8.3270    7.9664 C.3       1 <0>         0.0146
     37 C29        -3.5208    7.6925    9.3106 C.3       1 <0>         0.0200
     38 O5         -3.3230    6.2818    9.0850 O.3       1 <0>        -0.3773
     39 O6          3.1281    2.7623   -0.2759 O.3       1 <0>        -0.4989
     40 H3          1.0729   -1.1948   -0.9681 H         1 <0>         0.1301
     41 H4          3.0538    0.2635   -1.0584 H         1 <0>         0.1288
     42 H5          0.7679    3.4602    0.6211 H         1 <0>         0.1309
     43 H6         -1.2073    1.9942    0.7121 H         1 <0>         0.1262
     44 H7          1.7085   -4.1830    0.9390 H         1 <0>         0.1412
     45 H8          2.3673   -5.5400   -0.9945 H         1 <0>         0.1405
     46 H9         -0.3569   -3.3649   -3.4586 H         1 <0>         0.1384
     47 H10         0.8948   -6.0879   -3.5470 H         1 <0>         0.3915
     48 H11         0.7528   -0.2375    2.2845 H         1 <0>         0.1308
     49 H12         0.6956    0.9493    4.4402 H         1 <0>         0.1325
     50 H13        -3.3973   -0.1739    4.9415 H         1 <0>         0.1296
     51 H14        -3.3346   -1.3506    2.7804 H         1 <0>         0.1266
     52 H15        -3.4053    1.5522    6.1283 H         1 <0>         0.0629
     53 H16        -2.8952    0.0640    6.9608 H         1 <0>         0.0669
     54 H17        -3.3924    1.8098    8.6173 H         1 <0>         0.0613
     55 H18        -1.6472    1.4598    8.6210 H         1 <0>         0.0880
     56 H19        -2.2931    4.0126    9.7046 H         1 <0>         0.0436
     57 H20        -0.6957    3.4023    9.2112 H         1 <0>         0.0828
     58 H21        -0.7194    5.8867    9.3472 H         1 <0>         0.0784
     59 H22        -0.4220    5.3284    7.6825 H         1 <0>         0.0904
     60 H23        -3.9461    5.9275    6.5374 H         1 <0>         0.0729
     61 H24        -2.3462    5.3529    6.0069 H         1 <0>         0.0903
     62 H25        -3.8503    3.4422    6.4639 H         1 <0>         0.0767
     63 H26        -4.1109    4.0355    8.1216 H         1 <0>         0.0439
     64 H27        -2.7386    9.3504    8.1121 H         1 <0>         0.1100
     65 H28        -3.8931    8.2902    7.2366 H         1 <0>         0.0758
     66 H29        -2.8888    8.0445   10.1259 H         1 <0>         0.0769
     67 H30        -4.5698    7.9065    9.5149 H         1 <0>         0.0999
     68 H31         3.2131    3.2571   -1.1024 H         1 <0>         0.3919
@<TRIPOS>BOND
     1    1    6 ar
     2    1    2 ar
     3    1   40 1
     4    2    3 ar
     5    2   41 1
     6    3    4 ar
     7    3   39 1
     8    4    5 ar
     9    4   42 1
    10    5    6 ar
    11    5   43 1
    12    6    7 1
    13    7    8 1
    14    7   18 1
    15    7    9 1
    16    9   10 1
    17    9   11 1
    18    9   20 1
    19   11   12 1
    20   12   17 ar
    21   12   13 ar
    22   13   14 ar
    23   13   44 1
    24   14   15 ar
    25   14   45 1
    26   15   16 ar
    27   15   19 1
    28   16   17 ar
    29   16   46 1
    30   17   18 1
    31   19   47 1
    32   20   25 ar
    33   20   21 ar
    34   21   22 ar
    35   21   48 1
    36   22   23 ar
    37   22   49 1
    38   23   24 ar
    39   23   26 1
    40   24   25 ar
    41   24   50 1
    42   25   51 1
    43   26   27 1
    44   27   28 1
    45   27   52 1
    46   27   53 1
    47   28   29 1
    48   28   54 1
    49   28   55 1
    50   29   34 1
    51   29   30 1
    52   30   31 1
    53   30   56 1
    54   30   57 1
    55   31   32 1
    56   31   58 1
    57   31   59 1
    58   32   38 1
    59   32   33 1
    60   32   35 1
    61   33   34 1
    62   33   60 1
    63   33   61 1
    64   34   62 1
    65   34   63 1
    66   35   36 1
    67   36   37 1
    68   36   64 1
    69   36   65 1
    70   37   38 1
    71   37   66 1
    72   37   67 1
    73   39   68 1
