@<TRIPOS>MOLECULE
CHEMBL93792
   52    56     0     0     0
SMALL
USER_CHARGES

@<TRIPOS>ATOM
      1 C1         -0.0521    1.1583   -0.1647 C.ar      1 <0>        -0.1214
      2 C2          1.1040    1.9367   -0.1533 C.ar      1 <0>        -0.0874
      3 C3          2.3365    1.3605   -0.1200 C.ar      1 <0>        -0.1472
      4 C4          2.4487   -0.0403   -0.0963 C.ar      1 <0>         0.0323
      5 C5          1.2729   -0.8319   -0.1074 C.ar      1 <0>        -0.0733
      6 C6          0.0177   -0.2006   -0.1424 C.ar      1 <0>        -0.0907
      7 C7          1.3851   -2.2322   -0.0832 C.ar      1 <0>        -0.0401
      8 C8          2.6178   -2.8087   -0.0495 C.ar      1 <0>        -0.1476
      9 C9          3.7735   -2.0305   -0.0381 C.ar      1 <0>         0.0112
     10 C10         3.7036   -0.6713   -0.0613 C.ar      1 <0>        -0.6744
     11 S1          5.1790    0.2918   -0.0475 S.o2      1 <0>         2.6918
     12 O1          4.9745    1.3346    0.8959 O.2       1 <0>        -0.9454
     13 O2          6.2609   -0.6241    0.0520 O.2       1 <0>        -0.9492
     14 N1          5.3058    1.0147   -1.5320 N.pl3     1 <0>        -0.9963
     15 C11         5.8622    0.2978   -2.6844 C.3       1 <0>         0.1653
     16 C12         5.0033    0.5447   -3.8993 C.ar      1 <0>        -0.0751
     17 C13         5.2300   -0.2398   -5.0211 C.ar      1 <0>        -0.1409
     18 C14         4.4812   -0.0537   -6.1707 C.ar      1 <0>         0.1096
     19 C15         3.4988    0.9258   -6.1978 C.ar      1 <0>        -0.1423
     20 C16         3.2736    1.7000   -5.0802 C.ar      1 <0>        -0.0906
     21 C17         4.0214    1.5100   -3.9237 C.ar      1 <0>        -0.0664
     22 C18         3.6987    2.3768   -2.7349 C.3       1 <0>        -0.0313
     23 C19         4.8590    2.4005   -1.7494 C.3       1 <0>         0.1190
     24 C20         3.4176    3.7802   -3.2065 C.ar      1 <0>        -0.0872
     25 C21         4.3893    4.4856   -3.8922 C.ar      1 <0>        -0.0884
     26 C22         4.1342    5.7723   -4.3252 C.ar      1 <0>        -0.1408
     27 C23         2.9017    6.3567   -4.0720 C.ar      1 <0>         0.1075
     28 C24         1.9282    5.6467   -3.3843 C.ar      1 <0>        -0.1419
     29 C25         2.1864    4.3583   -2.9579 C.ar      1 <0>        -0.0964
     30 O3          2.6485    7.6226   -4.4965 O.3       1 <0>        -0.4998
     31 O4          4.7075   -0.8254   -7.2663 O.3       1 <0>        -0.4982
     32 H1         -1.0180    1.6410   -0.1870 H         1 <0>         0.1298
     33 H2          1.0206    3.0133   -0.1714 H         1 <0>         0.1317
     34 H3          3.2236    1.9764   -0.1123 H         1 <0>         0.1397
     35 H4         -0.8867   -0.7908   -0.1512 H         1 <0>         0.1322
     36 H5          0.4979   -2.8480   -0.0909 H         1 <0>         0.1370
     37 H6          2.7012   -3.8853   -0.0309 H         1 <0>         0.1369
     38 H7          4.7394   -2.5131   -0.0109 H         1 <0>         0.1455
     39 H8          6.8746    0.6524   -2.8778 H         1 <0>         0.0954
     40 H9          5.8877   -0.7704   -2.4692 H         1 <0>         0.0984
     41 H10         5.9960   -1.0007   -4.9975 H         1 <0>         0.1326
     42 H11         2.9129    1.0812   -7.0916 H         1 <0>         0.1288
     43 H12         2.5092    2.4626   -5.1032 H         1 <0>         0.1267
     44 H13         2.8139    1.9837   -2.2343 H         1 <0>         0.1036
     45 H14         4.5288    2.8339   -0.8054 H         1 <0>         0.1070
     46 H15         5.6771    2.9915   -2.1611 H         1 <0>         0.0923
     47 H16         5.3486    4.0302   -4.0890 H         1 <0>         0.1269
     48 H17         4.8938    6.3231   -4.8600 H         1 <0>         0.1296
     49 H18         0.9680    6.0994   -3.1859 H         1 <0>         0.1301
     50 H19         1.4274    3.8035   -2.4263 H         1 <0>         0.1276
     51 H20         2.2674    7.6710   -5.3840 H         1 <0>         0.3919
     52 H21         4.1802   -1.6356   -7.2923 H         1 <0>         0.3918
@<TRIPOS>BOND
     1    1    6 ar
     2    1    2 ar
     3    1   32 1
     4    2    3 ar
     5    2   33 1
     6    3    4 ar
     7    3   34 1
     8    4   10 ar
     9    4    5 ar
    10    5    6 ar
    11    5    7 ar
    12    6   35 1
    13    7    8 ar
    14    7   36 1
    15    8    9 ar
    16    8   37 1
    17    9   10 ar
    18    9   38 1
    19   10   11 1
    20   11   12 2
    21   11   13 2
    22   11   14 1
    23   14   23 1
    24   14   15 1
    25   15   16 1
    26   15   39 1
    27   15   40 1
    28   16   21 ar
    29   16   17 ar
    30   17   18 ar
    31   17   41 1
    32   18   19 ar
    33   18   31 1
    34   19   20 ar
    35   19   42 1
    36   20   21 ar
    37   20   43 1
    38   21   22 1
    39   22   23 1
    40   22   24 1
    41   22   44 1
    42   23   45 1
    43   23   46 1
    44   24   29 ar
    45   24   25 ar
    46   25   26 ar
    47   25   47 1
    48   26   27 ar
    49   26   48 1
    50   27   28 ar
    51   27   30 1
    52   28   29 ar
    53   28   49 1
    54   29   50 1
    55   30   51 1
    56   31   52 1
