@<TRIPOS>MOLECULE
CHEMBL219126
   45    48     0     0     0
SMALL
USER_CHARGES

@<TRIPOS>ATOM
      1 C1         -0.0167    1.3781    0.0096 C.ar      1 <0>        -0.1234
      2 C2          1.1709    2.0855    0.0021 C.ar      1 <0>        -0.1183
      3 C3          2.3773    1.4107   -0.0130 C.ar      1 <0>        -0.1224
      4 C4          2.3960    0.0285   -0.0201 C.ar      1 <0>        -0.0755
      5 C5          1.2084   -0.6789   -0.0117 C.ar      1 <0>        -0.1100
      6 C6          0.0021   -0.0041    0.0020 C.ar      1 <0>        -0.1182
      7 C7          3.7112   -0.7071   -0.0376 C.3       1 <0>        -0.0307
      8 C8          4.1644   -0.9594    1.3773 C.ar      1 <0>        -0.1560
      9 C9          4.9560   -0.0216    2.0285 C.ar      1 <0>         0.1995
     10 C10         5.3829   -0.2374    3.3328 C.ar      1 <0>        -0.2156
     11 C11         5.0227   -1.3964    3.9972 C.ar      1 <0>         0.2182
     12 C12         4.2265   -2.3493    3.3430 C.ar      1 <0>        -0.2883
     13 C13         3.7864   -2.1216    2.0256 C.ar      1 <0>         0.2175
     14 O1          3.0006   -3.0239    1.3923 O.3       1 <0>        -0.2932
     15 C14         3.0115   -4.3780    1.8439 C.3       1 <0>         0.1450
     16 H1          3.9848   -4.8227    1.6366 H         1 <0>         0.0911
     17 C15         2.7439   -4.4120    3.3557 C.3       1 <0>        -0.1922
     18 C16         3.8393   -3.5924    4.0189 C.2       1 <0>         0.3990
     19 O2          4.3578   -3.9411    5.0595 O.2       1 <0>        -0.4245
     20 C17         1.9397   -5.1564    1.1253 C.ar      1 <0>        -0.1008
     21 C18         0.7472   -4.5418    0.7909 C.ar      1 <0>        -0.0750
     22 C19        -0.2371   -5.2532    0.1325 C.ar      1 <0>        -0.1450
     23 C20        -0.0280   -6.5854   -0.1935 C.ar      1 <0>         0.1166
     24 C21         1.1696   -7.1997    0.1428 C.ar      1 <0>        -0.1431
     25 C22         2.1527   -6.4824    0.7965 C.ar      1 <0>        -0.0842
     26 O3         -0.9949   -7.2876   -0.8407 O.3       1 <0>        -0.4991
     27 O4          5.4361   -1.6103    5.2709 O.3       1 <0>        -0.4757
     28 O5          5.3161    1.1166    1.3839 O.3       1 <0>        -0.4859
     29 H2         -0.9591    1.9053    0.0259 H         1 <0>         0.1204
     30 H3          1.1563    3.1654    0.0076 H         1 <0>         0.1218
     31 H4          3.3051    1.9634   -0.0196 H         1 <0>         0.1206
     32 H5          1.2231   -1.7588   -0.0176 H         1 <0>         0.1255
     33 H6         -0.9258   -0.5567    0.0082 H         1 <0>         0.1207
     34 H7          3.5884   -1.6586   -0.5549 H         1 <0>         0.0892
     35 H8          4.4573   -0.1052   -0.5563 H         1 <0>         0.0910
     36 H9          5.9963    0.5004    3.8287 H         1 <0>         0.1463
     37 H10         1.7663   -3.9801    3.5694 H         1 <0>         0.1161
     38 H11         2.7836   -5.4398    3.7166 H         1 <0>         0.1145
     39 H12         0.5849   -3.5047    1.0449 H         1 <0>         0.1331
     40 H13        -1.1687   -4.7729   -0.1279 H         1 <0>         0.1327
     41 H14         1.3347   -8.2366   -0.1099 H         1 <0>         0.1342
     42 H15         3.0869   -6.9589    1.0545 H         1 <0>         0.1315
     43 H16        -0.9319   -7.2469   -1.8048 H         1 <0>         0.3945
     44 H17         4.8290   -1.2725    5.9435 H         1 <0>         0.3999
     45 H18         4.6947    1.8482    1.5007 H         1 <0>         0.3981
@<TRIPOS>BOND
     1    1    6 ar
     2    1    2 ar
     3    1   29 1
     4    2    3 ar
     5    2   30 1
     6    3    4 ar
     7    3   31 1
     8    4    5 ar
     9    4    7 1
    10    5    6 ar
    11    5   32 1
    12    6   33 1
    13    7    8 1
    14    7   34 1
    15    7   35 1
    16    8   13 ar
    17    8    9 ar
    18    9   10 ar
    19    9   28 1
    20   10   11 ar
    21   10   36 1
    22   11   12 ar
    23   11   27 1
    24   12   18 1
    25   12   13 ar
    26   13   14 1
    27   14   15 1
    28   15   16 1
    29   15   17 1
    30   15   20 1
    31   17   18 1
    32   17   37 1
    33   17   38 1
    34   18   19 2
    35   20   25 ar
    36   20   21 ar
    37   21   22 ar
    38   21   39 1
    39   22   23 ar
    40   22   40 1
    41   23   24 ar
    42   23   26 1
    43   24   25 ar
    44   24   41 1
    45   25   42 1
    46   26   43 1
    47   27   44 1
    48   28   45 1
