@<TRIPOS>MOLECULE
CHEMBL380565
   41    44     0     0     0
SMALL
USER_CHARGES

@<TRIPOS>ATOM
      1 C1         -0.0169    1.3920    0.0097 C.ar      1 <0>        -0.0532
      2 C2          1.1678    2.0957    0.0022 C.ar      1 <0>        -0.1987
      3 C3          2.3813    1.4168   -0.0131 C.ar      1 <0>         0.2209
      4 C4          2.4034    0.0264   -0.0207 C.ar      1 <0>        -0.1981
      5 C5          1.2221   -0.6828   -0.0133 C.ar      1 <0>        -0.0463
      6 C6          0.0021   -0.0041    0.0020 C.ar      1 <0>        -0.0989
      7 C7         -1.2679   -0.7625    0.0106 C.2       1 <0>        -0.0211
      8 C8         -1.6968   -1.5602   -0.9949 C.2       1 <0>        -0.0830
      9 C9         -3.0296   -2.1430   -0.5876 C.3       1 <0>        -0.0503
     10 C10        -3.3201   -1.5817    0.7830 C.ar      1 <0>        -0.0808
     11 C11        -2.2424   -0.7602    1.1202 C.ar      1 <0>        -0.0688
     12 C12        -2.2411   -0.1049    2.3550 C.ar      1 <0>        -0.0755
     13 C13        -3.2944   -0.2761    3.2269 C.ar      1 <0>        -0.1451
     14 C14        -4.3598   -1.0981    2.8846 C.ar      1 <0>         0.1101
     15 C15        -4.3711   -1.7452    1.6545 C.ar      1 <0>        -0.1271
     16 O1         -5.3953   -1.2633    3.7487 O.3       1 <0>        -0.4973
     17 C16        -0.9911   -1.8142   -2.2593 C.ar      1 <0>        -0.0350
     18 C17        -0.7834   -0.7717   -3.1693 C.ar      1 <0>        -0.0780
     19 C18        -0.1215   -1.0153   -4.3527 C.ar      1 <0>        -0.1432
     20 C19         0.3390   -2.2933   -4.6435 C.ar      1 <0>         0.1072
     21 C20         0.1356   -3.3320   -3.7438 C.ar      1 <0>        -0.1441
     22 C21        -0.5195   -3.0982   -2.5546 C.ar      1 <0>        -0.0886
     23 O2          0.9904   -2.5282   -5.8125 O.3       1 <0>        -0.5004
     24 N1          3.5794    2.1323   -0.0211 N.pl3     1 <0>        -0.8777
     25 H1         -0.9590    1.9197    0.0260 H         1 <0>         0.1208
     26 H2          1.1538    3.1756    0.0077 H         1 <0>         0.1206
     27 H3          3.3474   -0.4981   -0.0329 H         1 <0>         0.1198
     28 H4          1.2398   -1.7627   -0.0196 H         1 <0>         0.1192
     29 H5         -3.8044   -1.8381   -1.2911 H         1 <0>         0.1052
     30 H6         -2.9672   -3.2303   -0.5436 H         1 <0>         0.1046
     31 H7         -1.4144    0.5352    2.6259 H         1 <0>         0.1272
     32 H8         -3.2910    0.2309    4.1805 H         1 <0>         0.1314
     33 H9         -5.1990   -2.3858    1.3886 H         1 <0>         0.1301
     34 H10        -6.1096   -0.6217    3.6338 H         1 <0>         0.3916
     35 H11        -1.1417    0.2220   -2.9444 H         1 <0>         0.1266
     36 H12         0.0393   -0.2114   -5.0557 H         1 <0>         0.1292
     37 H13         0.4954   -4.3236   -3.9751 H         1 <0>         0.1301
     38 H14        -0.6732   -3.9055   -1.8538 H         1 <0>         0.1282
     39 H15         1.9485   -2.4079   -5.7600 H         1 <0>         0.3913
     40 H16         3.5651    3.1022   -0.0161 H         1 <0>         0.3986
     41 H17         4.4264    1.6598   -0.0318 H         1 <0>         0.3985
@<TRIPOS>BOND
     1    1    6 ar
     2    1    2 ar
     3    1   25 1
     4    2    3 ar
     5    2   26 1
     6    3    4 ar
     7    3   24 1
     8    4    5 ar
     9    4   27 1
    10    5    6 ar
    11    5   28 1
    12    6    7 1
    13    7   11 1
    14    7    8 2
    15    8    9 1
    16    8   17 1
    17    9   10 1
    18    9   29 1
    19    9   30 1
    20   10   15 ar
    21   10   11 ar
    22   11   12 ar
    23   12   13 ar
    24   12   31 1
    25   13   14 ar
    26   13   32 1
    27   14   15 ar
    28   14   16 1
    29   15   33 1
    30   16   34 1
    31   17   22 ar
    32   17   18 ar
    33   18   19 ar
    34   18   35 1
    35   19   20 ar
    36   19   36 1
    37   20   21 ar
    38   20   23 1
    39   21   22 ar
    40   21   37 1
    41   22   38 1
    42   23   39 1
    43   24   40 1
    44   24   41 1
