@<TRIPOS>MOLECULE
CHEMBL238960
   85    89     0     0     0
SMALL
USER_CHARGES

@<TRIPOS>ATOM
      1 C1         -0.0187    1.5258    0.0104 C.3       1 <0>        -0.1650
      2 C2          0.0021   -0.0041    0.0020 C.3       1 <0>         0.1421
      3 H1          0.5123   -0.3556   -0.8948 H         1 <0>         0.0894
      4 C3         -1.4333   -0.5336    0.0129 C.3       1 <0>        -0.1221
      5 C4         -1.4157   -2.0577   -0.1212 C.3       1 <0>        -0.0784
      6 C5         -2.8295   -2.5793   -0.1105 C.ar      1 <0>        -0.0929
      7 C6         -3.4314   -2.9172    1.0875 C.ar      1 <0>        -0.1008
      8 C7         -4.7271   -3.3960    1.1000 C.ar      1 <0>        -0.1428
      9 C8         -5.4247   -3.5373   -0.0909 C.ar      1 <0>         0.1014
     10 C9         -4.8186   -3.1971   -1.2916 C.ar      1 <0>        -0.1423
     11 C10        -3.5245   -2.7138   -1.2982 C.ar      1 <0>        -0.1005
     12 O1         -6.6993   -4.0085   -0.0813 O.3       1 <0>        -0.5003
     13 N1          0.7106   -0.4894    1.1889 N.am      1 <0>        -0.7284
     14 C11         2.0538   -0.5998    1.1737 C.2       1 <0>         0.5134
     15 O2          2.6758   -0.2974    0.1774 O.2       1 <0>        -0.5253
     16 C12         2.7826   -1.0990    2.3946 C.3       1 <0>        -0.0702
     17 C13         4.2638   -1.1281    2.1185 C.2       1 <0>        -0.1360
     18 C14         5.0227   -2.2454    1.5591 C.ar      1 <0>        -0.0523
     19 C15         4.6782   -3.5332    1.1335 C.ar      1 <0>        -0.0970
     20 C16         5.6417   -4.3684    0.6447 C.ar      1 <0>        -0.1077
     21 C17         6.9637   -3.9518    0.5657 C.ar      1 <0>        -0.1948
     22 C18         7.3285   -2.6847    0.9801 C.ar      1 <0>         0.1182
     23 C19         6.3592   -1.8152    1.4820 C.ar      1 <0>         0.0847
     24 N2          6.4060   -0.5237    1.9628 N.pl3     1 <0>        -0.5772
     25 H2          7.2068    0.0202    2.0244 H         1 <0>         0.4178
     26 C20         5.1453   -0.1207    2.3362 C.2       1 <0>         0.1477
     27 C21         4.8037    1.2066    2.8922 C.ar      1 <0>        -0.0432
     28 C22         3.6792    1.8916    2.4300 C.ar      1 <0>        -0.0925
     29 C23         3.3657    3.1291    2.9532 C.ar      1 <0>        -0.1162
     30 C24         4.1637    3.6913    3.9336 C.ar      1 <0>        -0.1065
     31 C25         5.2802    3.0176    4.3958 C.ar      1 <0>        -0.1179
     32 C26         5.6012    1.7766    3.8854 C.ar      1 <0>        -0.1054
     33 O3          8.6262   -2.2872    0.8992 O.3       1 <0>        -0.3221
     34 C27         9.5624   -3.2310    0.3751 C.3       1 <0>         0.0620
     35 C28        10.9602   -2.6091    0.3613 C.3       1 <0>        -0.1176
     36 C29        11.9625   -3.6196   -0.1999 C.3       1 <0>        -0.1462
     37 C30        13.3603   -2.9976   -0.2137 C.3       1 <0>        -0.0084
     38 N3         14.3227   -3.9679   -0.7525 N.4       1 <0>        -0.3831
     39 C31        14.4106   -5.1212    0.1513 C.3       1 <0>        -0.0126
     40 C32        15.3504   -6.1711   -0.4453 C.3       1 <0>        -0.1461
     41 C33        16.7414   -5.5576   -0.6293 C.3       1 <0>        -0.1398
     42 C34        16.6264   -4.3124   -1.5133 C.3       1 <0>        -0.1466
     43 C35        15.6394   -3.3313   -0.8771 C.3       1 <0>        -0.0068
     44 H3          1.0039    1.9031    0.0027 H         1 <0>         0.0600
     45 H4         -0.5459    1.8868   -0.8726 H         1 <0>         0.0665
     46 H5         -0.5289    1.8773    0.9072 H         1 <0>         0.0581
     47 H6         -1.9156   -0.2570    0.9504 H         1 <0>         0.0717
     48 H7         -1.9862   -0.1019   -0.8214 H         1 <0>         0.0816
     49 H8         -0.9334   -2.3344   -1.0587 H         1 <0>         0.0739
     50 H9         -0.8628   -2.4894    0.7131 H         1 <0>         0.0735
     51 H10        -2.8879   -2.8071    2.0143 H         1 <0>         0.1254
     52 H11        -5.1966   -3.6605    2.0359 H         1 <0>         0.1286
     53 H12        -5.3596   -3.3061   -2.2200 H         1 <0>         0.1288
     54 H13        -3.0538   -2.4447   -2.2322 H         1 <0>         0.1261
     55 H14        -7.3727   -3.3195    0.0019 H         1 <0>         0.3920
     56 H15         0.2131   -0.7312    1.9857 H         1 <0>         0.3998
     57 H16         2.5826   -0.4337    3.2345 H         1 <0>         0.1020
     58 H17         2.4385   -2.1044    2.6374 H         1 <0>         0.1034
     59 H18         3.6525   -3.8661    1.1920 H         1 <0>         0.1239
     60 H19         5.3731   -5.3618    0.3170 H         1 <0>         0.1265
     61 H20         7.7142   -4.6242    0.1770 H         1 <0>         0.1263
     62 H21         3.0559    1.4540    1.6642 H         1 <0>         0.1317
     63 H22         2.4957    3.6603    2.5963 H         1 <0>         0.1280
     64 H23         3.9142    4.6605    4.3396 H         1 <0>         0.1272
     65 H24         5.8995    3.4621    5.1608 H         1 <0>         0.1274
     66 H25         6.4702    1.2495    4.2504 H         1 <0>         0.1209
     67 H26         9.5679   -4.1233    1.0012 H         1 <0>         0.0654
     68 H27         9.2751   -3.5019   -0.6409 H         1 <0>         0.0658
     69 H28        10.9547   -1.7168   -0.2648 H         1 <0>         0.0856
     70 H29        11.2474   -2.3382    1.3773 H         1 <0>         0.0850
     71 H30        11.9681   -4.5119    0.4262 H         1 <0>         0.0910
     72 H31        11.6753   -3.8904   -1.2159 H         1 <0>         0.0913
     73 H32        13.3548   -2.1054   -0.8398 H         1 <0>         0.1331
     74 H33        13.6476   -2.7268    0.8023 H         1 <0>         0.1313
     75 H34        14.7963   -4.7963    1.1177 H         1 <0>         0.1286
     76 H35        13.4194   -5.5547    0.2838 H         1 <0>         0.1310
     77 H36        15.4157   -7.0258    0.2280 H         1 <0>         0.1120
     78 H37        14.9655   -6.4969   -1.4117 H         1 <0>         0.0875
     79 H38        17.1481   -5.2783    0.3426 H         1 <0>         0.0817
     80 H39        17.3998   -6.2837   -1.1063 H         1 <0>         0.0944
     81 H40        17.6039   -3.8384   -1.6033 H         1 <0>         0.1124
     82 H41        16.2681   -4.5996   -2.5018 H         1 <0>         0.0876
     83 H42        15.5554   -2.4435   -1.5038 H         1 <0>         0.1301
     84 H43        15.9989   -3.0446    0.1112 H         1 <0>         0.1283
     85 H44        14.0130   -4.2782   -1.6613 H         1 <0>         0.4224
@<TRIPOS>BOND
     1    1    2 1
     2    1   44 1
     3    1   45 1
     4    1   46 1
     5    2    3 1
     6    2    4 1
     7    2   13 1
     8    4    5 1
     9    4   47 1
    10    4   48 1
    11    5    6 1
    12    5   49 1
    13    5   50 1
    14    6   11 ar
    15    6    7 ar
    16    7    8 ar
    17    7   51 1
    18    8    9 ar
    19    8   52 1
    20    9   10 ar
    21    9   12 1
    22   10   11 ar
    23   10   53 1
    24   11   54 1
    25   12   55 1
    26   13   14 am
    27   13   56 1
    28   14   15 2
    29   14   16 1
    30   16   17 1
    31   16   57 1
    32   16   58 1
    33   17   26 2
    34   17   18 1
    35   18   23 ar
    36   18   19 ar
    37   19   20 ar
    38   19   59 1
    39   20   21 ar
    40   20   60 1
    41   21   22 ar
    42   21   61 1
    43   22   23 ar
    44   22   33 1
    45   23   24 1
    46   24   25 1
    47   24   26 1
    48   26   27 1
    49   27   32 ar
    50   27   28 ar
    51   28   29 ar
    52   28   62 1
    53   29   30 ar
    54   29   63 1
    55   30   31 ar
    56   30   64 1
    57   31   32 ar
    58   31   65 1
    59   32   66 1
    60   33   34 1
    61   34   35 1
    62   34   67 1
    63   34   68 1
    64   35   36 1
    65   35   69 1
    66   35   70 1
    67   36   37 1
    68   36   71 1
    69   36   72 1
    70   37   38 1
    71   37   73 1
    72   37   74 1
    73   38   43 1
    74   38   39 1
    75   38   85 1
    76   39   40 1
    77   39   75 1
    78   39   76 1
    79   40   41 1
    80   40   77 1
    81   40   78 1
    82   41   42 1
    83   41   79 1
    84   41   80 1
    85   42   43 1
    86   42   81 1
    87   42   82 1
    88   43   83 1
    89   43   84 1
