@<TRIPOS>MOLECULE
CHEMBL334096
   54    58     0     0     0
SMALL
USER_CHARGES

@<TRIPOS>ATOM
      1 C1         -0.0816    1.1111    0.4741 C.ar      1 <0>        -0.0967
      2 C2          1.1245    1.7488    0.6804 C.ar      1 <0>        -0.0990
      3 C3          2.3049    1.0059    0.7214 C.ar      1 <0>        -0.0733
      4 C4          2.2571   -0.3785    0.5532 C.ar      1 <0>        -0.1015
      5 C5          1.0447   -1.0040    0.3476 C.ar      1 <0>        -0.0730
      6 C6         -0.1221   -0.2617    0.3080 C.ar      1 <0>        -0.0642
      7 C7         -1.4429   -0.9515    0.0830 C.3       1 <0>         0.1434
      8 H1         -2.2532   -0.3084    0.4263 H         1 <0>         0.0977
      9 C8         -1.6203   -1.2464   -1.4159 C.3       1 <0>        -0.0654
     10 H2         -1.5033   -0.3285   -1.9919 H         1 <0>         0.1395
     11 S1         -3.3034   -1.9055   -1.6326 S.3       1 <0>        -0.0785
     12 C9         -3.4546   -3.0294   -0.2780 C.ar      1 <0>        -0.1487
     13 C10        -4.5063   -3.9361   -0.2683 C.ar      1 <0>        -0.0894
     14 C11        -4.6514   -4.8223    0.7867 C.ar      1 <0>         0.0996
     15 C12        -3.7421   -4.7967    1.8340 C.ar      1 <0>        -0.1068
     16 C13        -2.6952   -3.8983    1.8232 C.ar      1 <0>        -0.1141
     17 C14        -2.5353   -3.0069    0.7648 C.ar      1 <0>         0.1197
     18 O1         -1.4690   -2.1738    0.8041 O.3       1 <0>        -0.3050
     19 O2         -5.6797   -5.7119    0.7958 O.3       1 <0>        -0.4916
     20 C15        -0.6052   -2.2666   -1.8629 C.ar      1 <0>        -0.0884
     21 C16         0.4945   -1.8687   -2.6005 C.ar      1 <0>        -0.0828
     22 C17         1.4262   -2.8020   -3.0118 C.ar      1 <0>        -0.1458
     23 C18         1.2580   -4.1394   -2.6838 C.ar      1 <0>         0.1147
     24 C19         0.1540   -4.5361   -1.9432 C.ar      1 <0>        -0.1396
     25 C20        -0.7722   -3.5982   -1.5299 C.ar      1 <0>        -0.0876
     26 O3          2.1730   -5.0596   -3.0877 O.3       1 <0>        -0.4967
     27 C21         3.6004    1.6825    0.9416 C.2       1 <0>        -0.0469
     28 C22         3.8177    2.2765    2.0951 C.2       1 <0>        -0.1906
     29 C23         5.0966    2.9952    2.4156 C.3       1 <0>         0.0367
     30 N1          6.1621    2.5782    1.4966 N.4       1 <0>        -0.5087
     31 C24         5.6879    2.7324    0.1122 C.3       1 <0>        -0.0038
     32 C25         4.6254    1.6620   -0.1589 C.3       1 <0>        -0.1155
     33 H3         -0.9964    1.6845    0.4466 H         1 <0>         0.1340
     34 H4          1.1548    2.8206    0.8095 H         1 <0>         0.1297
     35 H5          3.1673   -0.9590    0.5836 H         1 <0>         0.1247
     36 H6          1.0064   -2.0754    0.2170 H         1 <0>         0.1328
     37 H7         -5.2126   -3.9508   -1.0852 H         1 <0>         0.1411
     38 H8         -3.8539   -5.4828    2.6606 H         1 <0>         0.1429
     39 H9         -1.9927   -3.8859    2.6435 H         1 <0>         0.1406
     40 H10        -5.4724   -6.5571    0.3740 H         1 <0>         0.3951
     41 H11         0.6250   -0.8274   -2.8556 H         1 <0>         0.1244
     42 H12         2.2847   -2.4908   -3.5886 H         1 <0>         0.1299
     43 H13         0.0209   -5.5767   -1.6867 H         1 <0>         0.1310
     44 H14        -1.6295   -3.9058   -0.9495 H         1 <0>         0.1319
     45 H15         2.8936   -5.2002   -2.4583 H         1 <0>         0.3915
     46 H16         3.0413    2.2462    2.8452 H         1 <0>         0.1514
     47 H17         4.9396    4.0697    2.3217 H         1 <0>         0.1412
     48 H18         5.3927    2.7650    3.4391 H         1 <0>         0.1434
     49 H19         6.9771    3.1552    1.6406 H         1 <0>         0.4360
     50 H20         5.2548    3.7242   -0.0178 H         1 <0>         0.1354
     51 H21         6.5221    2.6014   -0.5770 H         1 <0>         0.1405
     52 H22         5.0966    0.6799   -0.1979 H         1 <0>         0.1078
     53 H23         4.1389    1.8692   -1.1120 H         1 <0>         0.1256
     54 H24         6.3964    1.6118    1.6676 H         1 <0>         0.4314
@<TRIPOS>BOND
     1    1    6 ar
     2    1    2 ar
     3    1   33 1
     4    2    3 ar
     5    2   34 1
     6    3    4 ar
     7    3   27 1
     8    4    5 ar
     9    4   35 1
    10    5    6 ar
    11    5   36 1
    12    6    7 1
    13    7    8 1
    14    7   18 1
    15    7    9 1
    16    9   10 1
    17    9   11 1
    18    9   20 1
    19   11   12 1
    20   12   17 ar
    21   12   13 ar
    22   13   14 ar
    23   13   37 1
    24   14   15 ar
    25   14   19 1
    26   15   16 ar
    27   15   38 1
    28   16   17 ar
    29   16   39 1
    30   17   18 1
    31   19   40 1
    32   20   25 ar
    33   20   21 ar
    34   21   22 ar
    35   21   41 1
    36   22   23 ar
    37   22   42 1
    38   23   24 ar
    39   23   26 1
    40   24   25 ar
    41   24   43 1
    42   25   44 1
    43   26   45 1
    44   27   32 1
    45   27   28 2
    46   28   29 1
    47   28   46 1
    48   29   30 1
    49   29   47 1
    50   29   48 1
    51   30   31 1
    52   30   49 1
    53   30   54 1
    54   31   32 1
    55   31   50 1
    56   31   51 1
    57   32   52 1
    58   32   53 1
