@<TRIPOS>MOLECULE
CHEMBL311640
   29    32     0     0     0
SMALL
USER_CHARGES

@<TRIPOS>ATOM
      1 C1         -0.0168    1.3885    0.0097 C.ar      1 <0>        -0.1606
      2 C2          1.1527    2.0941    0.0023 C.ar      1 <0>        -0.0259
      3 C3          2.3723    1.4154   -0.0130 C.ar      1 <0>        -0.1415
      4 C4          2.4013    0.0095   -0.0209 C.ar      1 <0>         0.1207
      5 C5          1.2031   -0.6922   -0.0132 C.ar      1 <0>        -0.1466
      6 C6          0.0021   -0.0041    0.0020 C.ar      1 <0>         0.1674
      7 O1         -1.1683   -0.6931    0.0095 O.3       1 <0>        -0.4885
      8 O2          3.6917   -0.3809   -0.0354 O.3       1 <0>        -0.1477
      9 C7          4.5227    0.6865   -0.0375 C.2       1 <0>        -0.1116
     10 C8          3.7761    1.8455   -0.0241 C.2       1 <0>         0.1074
     11 O3          4.3482    3.0636   -0.0226 O.3       1 <0>        -0.1962
     12 C9          5.6861    3.2370   -0.0337 C.ar      1 <0>         0.1941
     13 C10         6.2332    4.5115   -0.0309 C.ar      1 <0>        -0.1829
     14 C11         7.6091    4.6767   -0.0426 C.ar      1 <0>         0.2023
     15 C12         8.4556    3.5731   -0.0567 C.ar      1 <0>        -0.2047
     16 C13         7.9296    2.2950   -0.0592 C.ar      1 <0>         0.2293
     17 C14         6.5390    2.1201   -0.0479 C.ar      1 <0>        -0.2563
     18 C15         5.9413    0.7758   -0.0498 C.2       1 <0>         0.4567
     19 O4          6.6379   -0.2259   -0.0617 O.2       1 <0>        -0.4280
     20 O5          8.7538    1.2169   -0.0735 O.3       1 <0>        -0.4714
     21 O6          8.1359    5.9279   -0.0406 O.3       1 <0>        -0.4856
     22 H1         -0.9607    1.9130    0.0260 H         1 <0>         0.1473
     23 H2          1.1338    3.1739    0.0079 H         1 <0>         0.1448
     24 H3          1.2081   -1.7722   -0.0194 H         1 <0>         0.1515
     25 H4         -1.5157   -0.8879   -0.8716 H         1 <0>         0.4024
     26 H5          5.5862    5.3762   -0.0200 H         1 <0>         0.1571
     27 H6          9.5261    3.7152   -0.0660 H         1 <0>         0.1545
     28 H7          9.0011    0.8992    0.8058 H         1 <0>         0.4058
     29 H8          8.2966    6.2856    0.8433 H         1 <0>         0.4059
@<TRIPOS>BOND
     1    1    6 ar
     2    1    2 ar
     3    1   22 1
     4    2    3 ar
     5    2   23 1
     6    3   10 1
     7    3    4 ar
     8    4    5 ar
     9    4    8 1
    10    5    6 ar
    11    5   24 1
    12    6    7 1
    13    7   25 1
    14    8    9 1
    15    9   18 1
    16    9   10 2
    17   10   11 1
    18   11   12 1
    19   12   17 ar
    20   12   13 ar
    21   13   14 ar
    22   13   26 1
    23   14   15 ar
    24   14   21 1
    25   15   16 ar
    26   15   27 1
    27   16   17 ar
    28   16   20 1
    29   17   18 1
    30   18   19 2
    31   20   28 1
    32   21   29 1
