@<TRIPOS>MOLECULE
CHEMBL198803
   62    66     0     0     0
SMALL
USER_CHARGES

@<TRIPOS>ATOM
      1 C1          0.1532    0.6112    0.3913 C.3       1 <0>        -0.1812
      2 C2          0.1755   -0.9022    0.1671 C.3       1 <0>         0.0389
      3 H1         -0.8460   -1.2819    0.1495 H         1 <0>         0.1537
      4 C3          0.8571   -1.2100   -1.1676 C.3       1 <0>         0.0287
      5 O1          2.1547   -0.6116   -1.1891 O.3       1 <0>        -0.3198
      6 C4          2.8974   -0.7907   -2.3109 C.ar      1 <0>         0.1484
      7 C5          2.3826   -1.5245   -3.3732 C.ar      1 <0>        -0.2157
      8 C6          3.1330   -1.7085   -4.5131 C.ar      1 <0>        -0.0167
      9 C7          4.4134   -1.1559   -4.6012 C.ar      1 <0>        -0.1827
     10 C8          4.9271   -0.4185   -3.5312 C.ar      1 <0>        -0.0192
     11 C9          4.1685   -0.2350   -2.3966 C.ar      1 <0>        -0.1531
     12 C10         5.2218   -1.3512   -5.8218 C.2       1 <0>         0.4629
     13 O2          4.8124   -2.0717   -6.7146 O.2       1 <0>        -0.4302
     14 C11         6.5140   -0.6795   -5.9584 C.2       1 <0>        -0.1636
     15 C12         6.6237    0.6183   -6.6294 C.ar      1 <0>        -0.0740
     16 C13         5.5933    1.3882   -7.2151 C.ar      1 <0>        -0.0609
     17 C14         5.8684    2.5919   -7.8087 C.ar      1 <0>        -0.1360
     18 C15         7.1661    3.0935   -7.8541 C.ar      1 <0>         0.1388
     19 C16         8.1972    2.3615   -7.2878 C.ar      1 <0>        -0.1007
     20 C17         7.9258    1.1492   -6.6889 C.ar      1 <0>        -0.1019
     21 S1          8.9340   -0.0618   -5.8731 S.3       1 <0>         0.0985
     22 C18         7.6746   -1.2494   -5.4511 C.2       1 <0>        -0.0542
     23 C19         7.8279   -2.5299   -4.7367 C.ar      1 <0>        -0.0426
     24 C20         7.2342   -3.6902   -5.2423 C.ar      1 <0>        -0.0726
     25 C21         7.3800   -4.8843   -4.5715 C.ar      1 <0>        -0.1417
     26 C22         8.1159   -4.9368   -3.3939 C.ar      1 <0>         0.1259
     27 C23         8.7078   -3.7861   -2.8876 C.ar      1 <0>        -0.1440
     28 C24         8.5722   -2.5886   -3.5547 C.ar      1 <0>        -0.0734
     29 O3          8.2566   -6.1162   -2.7357 O.3       1 <0>        -0.4993
     30 O4          7.4192    4.2895   -8.4485 O.3       1 <0>        -0.4890
     31 N1          0.9192   -1.5477    1.2571 N.4       1 <0>        -0.3938
     32 C25         0.2223   -1.3317    2.5508 C.3       1 <0>        -0.0059
     33 C26         0.7614   -2.4803    3.4400 C.3       1 <0>        -0.1452
     34 C27         0.8707   -3.6622    2.4495 C.3       1 <0>        -0.1433
     35 C28         0.9504   -3.0126    1.0555 C.3       1 <0>        -0.0129
     36 H2          1.1748    0.9910    0.4089 H         1 <0>         0.0899
     37 H3         -0.3986    1.0902   -0.4175 H         1 <0>         0.1057
     38 H4         -0.3324    0.8305    1.3422 H         1 <0>         0.0843
     39 H5          0.9528   -2.2893   -1.2864 H         1 <0>         0.0885
     40 H6          0.2574   -0.8064   -1.9835 H         1 <0>         0.1101
     41 H7          1.3928   -1.9513   -3.3043 H         1 <0>         0.1349
     42 H8          2.7325   -2.2794   -5.3378 H         1 <0>         0.1430
     43 H9          5.9163    0.0102   -3.5955 H         1 <0>         0.1409
     44 H10         4.5632    0.3383   -1.5709 H         1 <0>         0.1404
     45 H11         4.5771    1.0231   -7.1947 H         1 <0>         0.1272
     46 H12         5.0639    3.1617   -8.2498 H         1 <0>         0.1396
     47 H13         9.2090    2.7383   -7.3156 H         1 <0>         0.1433
     48 H14         6.6618   -3.6503   -6.1573 H         1 <0>         0.1342
     49 H15         6.9214   -5.7812   -4.9611 H         1 <0>         0.1371
     50 H16         9.2785   -3.8315   -1.9719 H         1 <0>         0.1376
     51 H17         9.0363   -1.6956   -3.1629 H         1 <0>         0.1350
     52 H18         9.0287   -6.6298   -3.0097 H         1 <0>         0.3989
     53 H19         7.3606    5.0465   -7.8497 H         1 <0>         0.3983
     54 H20         0.4864   -0.3621    2.9729 H         1 <0>         0.1363
     55 H21        -0.8571   -1.4167    2.4252 H         1 <0>         0.1344
     56 H22         1.7402   -2.2262    3.8469 H         1 <0>         0.0985
     57 H23         0.0581   -2.7113    4.2401 H         1 <0>         0.1177
     58 H24         1.7724   -4.2410    2.6492 H         1 <0>         0.1056
     59 H25        -0.0116   -4.2982    2.5206 H         1 <0>         0.1046
     60 H26         0.0973   -3.3226    0.4521 H         1 <0>         0.1296
     61 H27         1.8801   -3.3002    0.5645 H         1 <0>         0.1307
     62 H28         1.8588   -1.1826    1.3017 H         1 <0>         0.4314
@<TRIPOS>BOND
     1    1    2 1
     2    1   36 1
     3    1   37 1
     4    1   38 1
     5    2    3 1
     6    2    4 1
     7    2   31 1
     8    4    5 1
     9    4   39 1
    10    4   40 1
    11    5    6 1
    12    6   11 ar
    13    6    7 ar
    14    7    8 ar
    15    7   41 1
    16    8    9 ar
    17    8   42 1
    18    9   10 ar
    19    9   12 1
    20   10   11 ar
    21   10   43 1
    22   11   44 1
    23   12   13 2
    24   12   14 1
    25   14   22 2
    26   14   15 1
    27   15   20 ar
    28   15   16 ar
    29   16   17 ar
    30   16   45 1
    31   17   18 ar
    32   17   46 1
    33   18   19 ar
    34   18   30 1
    35   19   20 ar
    36   19   47 1
    37   20   21 1
    38   21   22 1
    39   22   23 1
    40   23   28 ar
    41   23   24 ar
    42   24   25 ar
    43   24   48 1
    44   25   26 ar
    45   25   49 1
    46   26   27 ar
    47   26   29 1
    48   27   28 ar
    49   27   50 1
    50   28   51 1
    51   29   52 1
    52   30   53 1
    53   31   35 1
    54   31   32 1
    55   31   62 1
    56   32   33 1
    57   32   54 1
    58   32   55 1
    59   33   34 1
    60   33   56 1
    61   33   57 1
    62   34   35 1
    63   34   58 1
    64   34   59 1
    65   35   60 1
    66   35   61 1
