@<TRIPOS>MOLECULE
CHEMBL204315
   38    40     0     0     0
SMALL
USER_CHARGES

@<TRIPOS>ATOM
      1 C1         -0.0173    1.5272    0.0121 C.3       1 <0>        -0.1694
      2 C2          0.0020   -0.0026    0.0027 C.3       1 <0>         0.1295
      3 C3          0.7538   -0.5052   -1.2368 C.3       1 <0>        -0.1258
      4 C4          2.1578    0.0992   -1.2414 C.3       1 <0>        -0.0786
      5 C5          2.8348   -0.1306    0.0840 C.ar      1 <0>        -0.1098
      6 C6          4.2163   -0.0585    0.1522 C.ar      1 <0>        -0.0900
      7 C7          4.8664   -0.2616    1.3539 C.ar      1 <0>        -0.1420
      8 C8          4.1409   -0.5386    2.4983 C.ar      1 <0>        -0.0842
      9 C9          2.7639   -0.6132    2.4391 C.ar      1 <0>        -0.1784
     10 C10         2.1072   -0.4101    1.2302 C.ar      1 <0>         0.1803
     11 N1          0.7114   -0.4986    1.1899 N.pl3     1 <0>        -0.9308
     12 S1         -0.1275   -1.1507    2.4601 S.o2      1 <0>         2.6853
     13 O1         -1.4099   -1.5049    1.9608 O.2       1 <0>        -0.9430
     14 O2          0.7376   -2.0948    3.0762 O.2       1 <0>        -0.9393
     15 C11        -0.3825    0.1392    3.6331 C.ar      1 <0>        -0.6893
     16 C12         0.5534    0.3643    4.6256 C.ar      1 <0>        -0.0037
     17 C13         0.3556    1.3747    5.5467 C.ar      1 <0>        -0.1636
     18 C14        -0.7830    2.1640    5.4750 C.ar      1 <0>         0.1696
     19 C15        -1.7203    1.9364    4.4778 C.ar      1 <0>        -0.1650
     20 C16        -1.5153    0.9281    3.5560 C.ar      1 <0>        -0.0006
     21 O3         -0.9801    3.1583    6.3802 O.3       1 <0>        -0.4962
     22 H1          1.0056    1.9035    0.0041 H         1 <0>         0.0697
     23 H2         -0.5446    1.8893   -0.8705 H         1 <0>         0.0773
     24 H3         -0.5267    1.8786    0.9093 H         1 <0>         0.0587
     25 H4         -1.0189   -0.3845   -0.0037 H         1 <0>         0.1149
     26 H5          0.8243   -1.5925   -1.2052 H         1 <0>         0.0755
     27 H6          0.2209   -0.1979   -2.1367 H         1 <0>         0.0885
     28 H7          2.7472   -0.3648   -2.0322 H         1 <0>         0.0815
     29 H8          2.0882    1.1706   -1.4294 H         1 <0>         0.0813
     30 H9          4.7879    0.1572   -0.7384 H         1 <0>         0.1267
     31 H10         5.9439   -0.2043    1.3998 H         1 <0>         0.1251
     32 H11         4.6510   -0.6960    3.4371 H         1 <0>         0.1290
     33 H12         2.1962   -0.8292    3.3321 H         1 <0>         0.1386
     34 H13         1.4396   -0.2504    4.6811 H         1 <0>         0.1461
     35 H14         1.0866    1.5497    6.3223 H         1 <0>         0.1427
     36 H15        -2.6075    2.5495    4.4199 H         1 <0>         0.1423
     37 H16        -2.2425    0.7534    2.7768 H         1 <0>         0.1456
     38 H17        -0.6116    4.0117    6.1135 H         1 <0>         0.4018
@<TRIPOS>BOND
     1    1    2 1
     2    1   22 1
     3    1   23 1
     4    1   24 1
     5    2   11 1
     6    2    3 1
     7    2   25 1
     8    3    4 1
     9    3   26 1
    10    3   27 1
    11    4    5 1
    12    4   28 1
    13    4   29 1
    14    5   10 ar
    15    5    6 ar
    16    6    7 ar
    17    6   30 1
    18    7    8 ar
    19    7   31 1
    20    8    9 ar
    21    8   32 1
    22    9   10 ar
    23    9   33 1
    24   10   11 1
    25   11   12 1
    26   12   13 2
    27   12   14 2
    28   12   15 1
    29   15   20 ar
    30   15   16 ar
    31   16   17 ar
    32   16   34 1
    33   17   18 ar
    34   17   35 1
    35   18   19 ar
    36   18   21 1
    37   19   20 ar
    38   19   36 1
    39   20   37 1
    40   21   38 1
