@<TRIPOS>MOLECULE
CHEMBL153706
   80    84     0     0     0
SMALL
USER_CHARGES

@<TRIPOS>ATOM
      1 C1         -0.0178    1.4608    0.0101 C.3       1 <0>         0.0992
      2 N1          0.0021   -0.0041    0.0020 N.pl3     1 <0>        -0.5709
      3 C2          0.0241   -0.7433    1.2666 C.3       1 <0>         0.1282
      4 C3         -1.4105   -1.0203    1.7205 C.3       1 <0>        -0.1255
      5 C4         -1.3875   -1.7923    3.0413 C.3       1 <0>        -0.0771
      6 C5         -2.8005   -2.0651    3.4884 C.ar      1 <0>        -0.0784
      7 C6         -3.4587   -1.1539    4.2931 C.ar      1 <0>        -0.1048
      8 C7         -4.7547   -1.4036    4.7034 C.ar      1 <0>        -0.1076
      9 C8         -5.3933   -2.5657    4.3087 C.ar      1 <0>        -0.0381
     10 C9         -4.7340   -3.4773    3.5034 C.ar      1 <0>        -0.1080
     11 C10        -3.4400   -3.2238    3.0890 C.ar      1 <0>        -0.1032
     12 Cl1        -7.0209   -2.8802    4.8242 Cl        1 <0>        -0.0670
     13 C11         0.0000   -0.6876   -1.1969 C.ar      1 <0>         0.6577
     14 N2          0.0126   -2.0171   -1.2042 N.ar      1 <0>        -0.6593
     15 C12         0.0106   -2.6754   -2.3589 C.ar      1 <0>         0.6587
     16 N3         -0.0039   -2.0045   -3.5066 N.ar      1 <0>        -0.6815
     17 C13        -0.0169   -0.6754   -3.4993 C.ar      1 <0>         0.6560
     18 N4         -0.0200   -0.0169   -2.3443 N.ar      1 <0>        -0.6771
     19 N5         -0.0315    0.0211   -4.6907 N.pl3     1 <0>        -0.5969
     20 C14        -0.0398    1.4921   -4.7069 C.3       1 <0>         0.1097
     21 C15         1.0694    1.9737   -5.6479 C.3       1 <0>        -0.0219
     22 N6          0.8954    1.3521   -6.9667 N.4       1 <0>        -0.3810
     23 C16         1.0705   -0.1019   -6.8613 C.3       1 <0>        -0.0251
     24 C17        -0.0330   -0.6864   -5.9805 C.3       1 <0>         0.1093
     25 C18         1.8918    1.8973   -7.8984 C.3       1 <0>         0.0196
     26 C19         1.6688    3.4124   -8.0835 C.3       1 <0>        -0.1420
     27 C20         1.9840    3.6628   -9.5792 C.3       1 <0>        -0.1245
     28 C21         1.4024    2.4025  -10.2667 C.3       1 <0>        -0.1303
     29 C22         1.7224    1.2551   -9.2864 C.3       1 <0>        -0.1446
     30 N7          0.0241   -4.0554   -2.3664 N.pl3     1 <0>        -0.6831
     31 C23         0.0405   -4.7947   -1.1018 C.3       1 <0>         0.1420
     32 C24         0.0532   -6.2974   -1.3895 C.3       1 <0>        -0.0914
     33 C25         0.0701   -7.0579   -0.0886 C.ar      1 <0>        -0.0958
     34 C26         1.2759   -7.3895    0.5013 C.ar      1 <0>        -0.0950
     35 C27         1.2941   -8.0869    1.6936 C.ar      1 <0>        -0.1429
     36 C28         0.1013   -8.4543    2.2993 C.ar      1 <0>         0.1099
     37 C29        -1.1072   -8.1200    1.7056 C.ar      1 <0>        -0.1423
     38 C30        -1.1201   -7.4179    0.5159 C.ar      1 <0>        -0.0948
     39 O1          0.1166   -9.1409    3.4720 O.3       1 <0>        -0.4991
     40 H1          1.0048    1.8381    0.0023 H         1 <0>         0.0560
     41 H2         -0.5450    1.8219   -0.8730 H         1 <0>         0.0790
     42 H3         -0.5280    1.8123    0.9069 H         1 <0>         0.0744
     43 H4          0.5496   -1.6879    1.1262 H         1 <0>         0.0923
     44 H5          0.5371   -0.1514    2.0246 H         1 <0>         0.0825
     45 H6         -1.9359   -0.0757    1.8610 H         1 <0>         0.0644
     46 H7         -1.9235   -1.6122    0.9626 H         1 <0>         0.0684
     47 H8         -0.8620   -2.7369    2.9008 H         1 <0>         0.0782
     48 H9         -0.8745   -1.2004    3.7993 H         1 <0>         0.0771
     49 H10        -2.9600   -0.2469    4.6014 H         1 <0>         0.1310
     50 H11        -5.2687   -0.6918    5.3324 H         1 <0>         0.1341
     51 H12        -5.2319   -4.3848    3.1952 H         1 <0>         0.1330
     52 H13        -2.9270   -3.9331    2.4564 H         1 <0>         0.1296
     53 H14        -1.0052    1.8490   -5.0659 H         1 <0>         0.0911
     54 H15         0.1430    1.8705   -3.7012 H         1 <0>         0.1413
     55 H16         1.0164    3.0579   -5.7472 H         1 <0>         0.1429
     56 H17         2.0401    1.6931   -5.2391 H         1 <0>         0.1319
     57 H18         1.0183   -0.5473   -7.8548 H         1 <0>         0.1445
     58 H19         2.0412   -0.3197   -6.4158 H         1 <0>         0.1322
     59 H20         0.1544   -1.7476   -5.8164 H         1 <0>         0.1419
     60 H21        -0.9976   -0.5532   -6.4702 H         1 <0>         0.0906
     61 H22         2.8971    1.7105   -7.5207 H         1 <0>         0.1388
     62 H23         0.6344    3.6756   -7.8624 H         1 <0>         0.0874
     63 H24         2.3513    3.9788   -7.4499 H         1 <0>         0.0978
     64 H25         1.4822    4.5629   -9.9344 H         1 <0>         0.0886
     65 H26         3.0598    3.7295   -9.7414 H         1 <0>         0.0831
     66 H27         0.3250    2.5026  -10.3981 H         1 <0>         0.0778
     67 H28         1.8905    2.2318  -11.2262 H         1 <0>         0.0873
     68 H29         2.6458    0.7575   -9.5828 H         1 <0>         0.1027
     69 H30         0.9009    0.5390   -9.2688 H         1 <0>         0.0855
     70 H31         0.0226   -4.5359   -3.2091 H         1 <0>         0.4163
     71 H32         0.9321   -4.5258   -0.5353 H         1 <0>         0.0732
     72 H33        -0.8477   -4.5432   -0.5223 H         1 <0>         0.0736
     73 H34        -0.8384   -6.5663   -1.9560 H         1 <0>         0.0815
     74 H35         0.9415   -6.5489   -1.9690 H         1 <0>         0.0812
     75 H36         2.2042   -7.1033    0.0294 H         1 <0>         0.1263
     76 H37         2.2362   -8.3464    2.1536 H         1 <0>         0.1304
     77 H38        -2.0371   -8.4048    2.1752 H         1 <0>         0.1305
     78 H39        -2.0606   -7.1535    0.0556 H         1 <0>         0.1265
     79 H40         0.1129   -8.5773    4.2578 H         1 <0>         0.3936
     80 H41        -0.0307    1.5539   -7.3127 H         1 <0>         0.4205
@<TRIPOS>BOND
     1    1    2 1
     2    1   40 1
     3    1   41 1
     4    1   42 1
     5    2    3 1
     6    2   13 1
     7    3    4 1
     8    3   43 1
     9    3   44 1
    10    4    5 1
    11    4   45 1
    12    4   46 1
    13    5    6 1
    14    5   47 1
    15    5   48 1
    16    6   11 ar
    17    6    7 ar
    18    7    8 ar
    19    7   49 1
    20    8    9 ar
    21    8   50 1
    22    9   10 ar
    23    9   12 1
    24   10   11 ar
    25   10   51 1
    26   11   52 1
    27   13   18 ar
    28   13   14 ar
    29   14   15 ar
    30   15   16 ar
    31   15   30 1
    32   16   17 ar
    33   17   18 ar
    34   17   19 1
    35   19   24 1
    36   19   20 1
    37   20   21 1
    38   20   53 1
    39   20   54 1
    40   21   22 1
    41   21   55 1
    42   21   56 1
    43   22   23 1
    44   22   25 1
    45   22   80 1
    46   23   24 1
    47   23   57 1
    48   23   58 1
    49   24   59 1
    50   24   60 1
    51   25   29 1
    52   25   26 1
    53   25   61 1
    54   26   27 1
    55   26   62 1
    56   26   63 1
    57   27   28 1
    58   27   64 1
    59   27   65 1
    60   28   29 1
    61   28   66 1
    62   28   67 1
    63   29   68 1
    64   29   69 1
    65   30   31 1
    66   30   70 1
    67   31   32 1
    68   31   71 1
    69   31   72 1
    70   32   33 1
    71   32   73 1
    72   32   74 1
    73   33   38 ar
    74   33   34 ar
    75   34   35 ar
    76   34   75 1
    77   35   36 ar
    78   35   76 1
    79   36   37 ar
    80   36   39 1
    81   37   38 ar
    82   37   77 1
    83   38   78 1
    84   39   79 1
