@<TRIPOS>MOLECULE
CHEMBL91452
   34    36     0     0     0
SMALL
USER_CHARGES

@<TRIPOS>ATOM
      1 C1         -0.0163    1.3513    0.0095 C.2       1 <0>        -0.1580
      2 C2          1.1833    2.0380    0.0017 C.2       1 <0>        -0.1320
      3 C3          2.3426    1.3358   -0.0131 C.2       1 <0>        -0.1664
      4 S1          1.7535   -0.3495   -0.0166 S.3       1 <0>         0.0506
      5 C4          0.0021   -0.0041    0.0020 C.2       1 <0>        -0.1676
      6 C5          3.7608    1.8454   -0.0244 C.3       1 <0>         0.2788
      7 C6          4.3284    1.7807    1.3716 C.ar      1 <0>        -0.1036
      8 C7          3.8466    2.6860    2.3081 C.ar      1 <0>        -0.0796
      9 C8          4.3171    2.6720    3.6039 C.ar      1 <0>        -0.1426
     10 C9          5.2796    1.7439    3.9749 C.ar      1 <0>         0.1190
     11 C10         5.7620    0.8449    3.0398 C.ar      1 <0>        -0.1437
     12 C11         5.2910    0.8646    1.7333 C.ar      1 <0>        -0.0466
     13 C12         5.8818   -0.1255    0.7643 C.3       1 <0>        -0.0992
     14 C13         4.9672   -0.3157   -0.4446 C.3       1 <0>         0.0906
     15 N1          4.5697    1.0178   -0.9256 N.am      1 <0>        -0.5844
     16 C14         4.9348    1.4606   -2.1450 C.2       1 <0>         0.4928
     17 O1          4.5943    2.5637   -2.5167 O.2       1 <0>        -0.4670
     18 C15         5.7663    0.5850   -3.0467 C.3       1 <0>         0.4545
     19 F1          6.0161    1.2569   -4.2481 F         1 <0>        -0.1478
     20 F2          6.9800    0.2873   -2.4178 F         1 <0>        -0.1638
     21 F3          5.0748   -0.6020   -3.3112 F         1 <0>        -0.1630
     22 O2          5.7469    1.7182    5.2508 O.3       1 <0>        -0.4977
     23 H1         -0.9542    1.8866    0.0258 H         1 <0>         0.1374
     24 H2          1.1967    3.1179    0.0070 H         1 <0>         0.1363
     25 H3         -0.8275   -0.6955    0.0065 H         1 <0>         0.1874
     26 H4          3.7722    2.8783   -0.3723 H         1 <0>         0.1335
     27 H5          3.0969    3.4075    2.0187 H         1 <0>         0.1309
     28 H6          3.9387    3.3800    4.3263 H         1 <0>         0.1345
     29 H7          6.5107    0.1220    3.3283 H         1 <0>         0.1335
     30 H8          6.8518    0.2389    0.4262 H         1 <0>         0.0938
     31 H9          6.0151   -1.0834    1.2672 H         1 <0>         0.1012
     32 H10         5.5020   -0.8473   -1.2316 H         1 <0>         0.1011
     33 H11         4.0824   -0.8812   -0.1522 H         1 <0>         0.0926
     34 H12         5.2458    1.1394    5.8416 H         1 <0>         0.3942
@<TRIPOS>BOND
     1    1    5 2
     2    1    2 1
     3    1   23 1
     4    2    3 2
     5    2   24 1
     6    3    4 1
     7    3    6 1
     8    4    5 1
     9    5   25 1
    10    6   15 1
    11    6    7 1
    12    6   26 1
    13    7   12 ar
    14    7    8 ar
    15    8    9 ar
    16    8   27 1
    17    9   10 ar
    18    9   28 1
    19   10   11 ar
    20   10   22 1
    21   11   12 ar
    22   11   29 1
    23   12   13 1
    24   13   14 1
    25   13   30 1
    26   13   31 1
    27   14   15 1
    28   14   32 1
    29   14   33 1
    30   15   16 am
    31   16   17 2
    32   16   18 1
    33   18   19 1
    34   18   20 1
    35   18   21 1
    36   22   34 1
