@<TRIPOS>MOLECULE
CHEMBL315866
   45    48     0     0     0
SMALL
USER_CHARGES

@<TRIPOS>ATOM
      1 C1         -0.0334    1.3300    0.0218 C.ar      1 <0>        -0.1201
      2 C2          1.1488    2.0462    0.0041 C.ar      1 <0>        -0.1145
      3 C3          2.3601    1.3804   -0.0116 C.ar      1 <0>        -0.0983
      4 C4          2.3893   -0.0017   -0.0089 C.ar      1 <0>        -0.0767
      5 C5          1.2071   -0.7179    0.0098 C.ar      1 <0>        -0.1200
      6 C6         -0.0043   -0.0521    0.0240 C.ar      1 <0>        -0.1170
      7 C7          3.7098   -0.7275   -0.0270 C.3       1 <0>        -0.0899
      8 C8          4.1782   -0.9700    1.4093 C.3       1 <0>         0.2039
      9 C9          5.4326   -1.8072    1.3935 C.ar      1 <0>        -0.0998
     10 C10         5.3125   -3.1456    1.0424 C.ar      1 <0>        -0.0944
     11 C11         6.4226   -3.9618    0.9990 C.ar      1 <0>        -0.1453
     12 C12         7.6709   -3.4402    1.3076 C.ar      1 <0>         0.1097
     13 C13         7.7890   -2.1074    1.6612 C.ar      1 <0>        -0.1475
     14 C14         6.6683   -1.2882    1.7102 C.ar      1 <0>        -0.0461
     15 C15         6.8698    0.1442    2.1296 C.3       1 <0>        -0.1006
     16 C16         5.6942    1.0121    1.6837 C.3       1 <0>         0.1205
     17 N1          4.4512    0.3171    2.0574 N.pl3     1 <0>        -0.6203
     18 C17         3.5676    0.8615    2.9922 C.ar      1 <0>         0.2302
     19 C18         2.3508    0.2404    3.2439 C.ar      1 <0>        -0.1864
     20 C19         1.4797    0.7811    4.1691 C.ar      1 <0>        -0.0711
     21 C20         1.8174    1.9397    4.8444 C.ar      1 <0>        -0.1789
     22 C21         3.0279    2.5606    4.5962 C.ar      1 <0>        -0.0732
     23 C22         3.9061    2.0221    3.6764 C.ar      1 <0>        -0.2001
     24 O1          8.7725   -4.2348    1.2633 O.3       1 <0>        -0.4993
     25 H1         -0.9797    1.8502    0.0386 H         1 <0>         0.1182
     26 H2          1.1260    3.1260    0.0020 H         1 <0>         0.1173
     27 H3          3.2838    1.9399   -0.0262 H         1 <0>         0.1135
     28 H4          1.2298   -1.7976    0.0114 H         1 <0>         0.1177
     29 H5         -0.9279   -0.6116    0.0382 H         1 <0>         0.1192
     30 H6          3.5919   -1.6836   -0.5370 H         1 <0>         0.0826
     31 H7          4.4491   -0.1237   -0.5532 H         1 <0>         0.0764
     32 H8          3.3989   -1.4958    1.9610 H         1 <0>         0.0981
     33 H9          4.3407   -3.5506    0.8017 H         1 <0>         0.1279
     34 H10         6.3212   -5.0019    0.7265 H         1 <0>         0.1307
     35 H11         8.7604   -1.7009    1.9010 H         1 <0>         0.1282
     36 H12         6.9584    0.1909    3.2150 H         1 <0>         0.0831
     37 H13         7.7869    0.5240    1.6792 H         1 <0>         0.0852
     38 H14         5.7400    1.9799    2.1830 H         1 <0>         0.0905
     39 H15         5.7280    1.1518    0.6032 H         1 <0>         0.0687
     40 H16         2.0862   -0.6640    2.7163 H         1 <0>         0.1172
     41 H17         0.5335    0.2988    4.3653 H         1 <0>         0.1166
     42 H18         1.1340    2.3608    5.5669 H         1 <0>         0.1151
     43 H19         3.2885    3.4653    5.1253 H         1 <0>         0.1179
     44 H20         4.8533    2.5049    3.4864 H         1 <0>         0.1192
     45 H21         9.2117   -4.2506    0.4019 H         1 <0>         0.3918
@<TRIPOS>BOND
     1    1    6 ar
     2    1    2 ar
     3    1   25 1
     4    2    3 ar
     5    2   26 1
     6    3    4 ar
     7    3   27 1
     8    4    5 ar
     9    4    7 1
    10    5    6 ar
    11    5   28 1
    12    6   29 1
    13    7    8 1
    14    7   30 1
    15    7   31 1
    16    8   17 1
    17    8    9 1
    18    8   32 1
    19    9   14 ar
    20    9   10 ar
    21   10   11 ar
    22   10   33 1
    23   11   12 ar
    24   11   34 1
    25   12   13 ar
    26   12   24 1
    27   13   14 ar
    28   13   35 1
    29   14   15 1
    30   15   16 1
    31   15   36 1
    32   15   37 1
    33   16   17 1
    34   16   38 1
    35   16   39 1
    36   17   18 1
    37   18   23 ar
    38   18   19 ar
    39   19   20 ar
    40   19   40 1
    41   20   21 ar
    42   20   41 1
    43   21   22 ar
    44   21   42 1
    45   22   23 ar
    46   22   43 1
    47   23   44 1
    48   24   45 1
