@<TRIPOS>MOLECULE
CHEMBL206547
   38    40     0     0     0
SMALL
USER_CHARGES

@<TRIPOS>ATOM
      1 C1         -0.0187    1.5258    0.0104 C.3       1 <0>        -0.1502
      2 C2          0.0021   -0.0041    0.0020 C.3       1 <0>        -0.1465
      3 C3          0.7182   -0.4975   -1.2568 C.3       1 <0>         0.1398
      4 C4          0.8637   -1.9950   -1.1931 C.ar      1 <0>        -0.1076
      5 C5          1.9773   -2.5787   -0.6323 C.ar      1 <0>        -0.0898
      6 C6          2.0818   -3.9628   -0.5817 C.ar      1 <0>         0.1052
      7 C7          1.0683   -4.7622   -1.0932 C.ar      1 <0>        -0.1311
      8 C8         -0.0507   -4.1835   -1.6592 C.ar      1 <0>        -0.0950
      9 C9         -0.1542   -2.7999   -1.7134 C.ar      1 <0>        -0.0324
     10 C10        -1.3241   -2.1264   -2.3249 C.ar      1 <0>        -0.1219
     11 C11        -2.5083   -2.8061   -2.5748 C.ar      1 <0>        -0.0641
     12 C12        -3.5744   -2.1370   -3.1432 C.ar      1 <0>        -0.1662
     13 C13        -3.4620   -0.7900   -3.4627 C.ar      1 <0>         0.1388
     14 C14        -2.2803   -0.1059   -3.2161 C.ar      1 <0>        -0.1333
     15 C15        -1.2064   -0.7672   -2.6492 C.ar      1 <0>         0.1498
     16 O1         -0.0375   -0.1222   -2.4083 O.3       1 <0>        -0.2998
     17 C16        -2.1676    1.3558   -3.5651 C.3       1 <0>        -0.1053
     18 O2         -4.5157   -0.1383   -4.0208 O.3       1 <0>        -0.4913
     19 O3          3.1822   -4.5378   -0.0291 O.3       1 <0>        -0.4934
     20 C17         3.0812   -1.7175   -0.0747 C.3       1 <0>        -0.1196
     21 H1          1.0039    1.9031    0.0027 H         1 <0>         0.0579
     22 H2         -0.5459    1.8868   -0.8726 H         1 <0>         0.0619
     23 H3         -0.5289    1.8773    0.9072 H         1 <0>         0.0586
     24 H4          0.5293   -0.3651    0.8851 H         1 <0>         0.0794
     25 H5         -1.0205   -0.3814    0.0098 H         1 <0>         0.0687
     26 H6          1.7076   -0.0432   -1.3106 H         1 <0>         0.1283
     27 H7          1.1553   -5.8377   -1.0486 H         1 <0>         0.1348
     28 H8         -0.8403   -4.8034   -2.0576 H         1 <0>         0.1333
     29 H9         -2.5957   -3.8533   -2.3255 H         1 <0>         0.1336
     30 H10        -4.4972   -2.6624   -3.3399 H         1 <0>         0.1350
     31 H11        -2.4807    1.9582   -2.7124 H         1 <0>         0.0678
     32 H12        -1.1332    1.5908   -3.8158 H         1 <0>         0.0730
     33 H13        -2.8075    1.5757   -4.4198 H         1 <0>         0.0735
     34 H14        -5.1138    0.2657   -3.3772 H         1 <0>         0.3933
     35 H15         3.1037   -4.7054    0.9201 H         1 <0>         0.3908
     36 H16         2.8847   -1.5109    0.9773 H         1 <0>         0.0744
     37 H17         4.0331   -2.2396   -0.1708 H         1 <0>         0.0791
     38 H18         3.1241   -0.7790   -0.6274 H         1 <0>         0.0706
@<TRIPOS>BOND
     1    1    2 1
     2    1   21 1
     3    1   22 1
     4    1   23 1
     5    2    3 1
     6    2   24 1
     7    2   25 1
     8    3   16 1
     9    3    4 1
    10    3   26 1
    11    4    9 ar
    12    4    5 ar
    13    5    6 ar
    14    5   20 1
    15    6    7 ar
    16    6   19 1
    17    7    8 ar
    18    7   27 1
    19    8    9 ar
    20    8   28 1
    21    9   10 1
    22   10   15 ar
    23   10   11 ar
    24   11   12 ar
    25   11   29 1
    26   12   13 ar
    27   12   30 1
    28   13   14 ar
    29   13   18 1
    30   14   15 ar
    31   14   17 1
    32   15   16 1
    33   17   31 1
    34   17   32 1
    35   17   33 1
    36   18   34 1
    37   19   35 1
    38   20   36 1
    39   20   37 1
    40   20   38 1
