@<TRIPOS>MOLECULE
CHEMBL386502
   38    40     0     0     0
SMALL
USER_CHARGES

@<TRIPOS>ATOM
      1 C1         -0.0187    1.5258    0.0104 C.3       1 <0>        -0.1607
      2 C2          0.0021   -0.0041    0.0020 C.3       1 <0>         0.1359
      3 C3          0.7421   -0.5109    1.2415 C.3       1 <0>        -0.1607
      4 N1         -1.3723   -0.5112    0.0124 N.pl3     1 <0>        -0.3848
      5 C4         -1.9310   -1.3097   -0.9524 C.ar      1 <0>         0.1680
      6 C5         -3.2572   -1.5632   -0.5567 C.ar      1 <0>        -0.1678
      7 C6         -4.0803   -2.3592   -1.3564 C.ar      1 <0>        -0.0031
      8 C7         -3.5932   -2.8868   -2.5178 C.ar      1 <0>        -0.1645
      9 C8         -2.2847   -2.6394   -2.9127 C.ar      1 <0>        -0.0107
     10 C9         -1.4550   -1.8582   -2.1411 C.ar      1 <0>        -0.2142
     11 C10        -0.0374   -1.5970   -2.5805 C.3       1 <0>         0.5086
     12 F1          0.2022   -2.2493   -3.7947 F         1 <0>        -0.1696
     13 F2          0.1539   -0.2209   -2.7448 F         1 <0>        -0.1729
     14 F3          0.8479   -2.0782   -1.6099 F         1 <0>        -0.1731
     15 C11        -3.4490   -0.8575    0.7149 C.2       1 <0>         0.1424
     16 N2         -2.3194   -0.2620    1.0108 N.2       1 <0>        -0.2248
     17 C12        -4.6920   -0.8285    1.5217 C.ar      1 <0>        -0.0293
     18 C13        -5.9353   -0.8334    0.8902 C.ar      1 <0>        -0.0770
     19 C14        -7.0898   -0.8069    1.6438 C.ar      1 <0>        -0.1437
     20 C15        -7.0153   -0.7753    3.0298 C.ar      1 <0>         0.1196
     21 C16        -5.7791   -0.7703    3.6617 C.ar      1 <0>        -0.1443
     22 C17        -4.6208   -0.8021    2.9141 C.ar      1 <0>        -0.0688
     23 O1         -8.1549   -0.7488    3.7695 O.3       1 <0>        -0.4985
     24 H1          1.0039    1.9031    0.0027 H         1 <0>         0.0783
     25 H2         -0.5459    1.8868   -0.8726 H         1 <0>         0.0617
     26 H3         -0.5289    1.8773    0.9072 H         1 <0>         0.0712
     27 H4          0.5123   -0.3556   -0.8948 H         1 <0>         0.1112
     28 H5          0.2319   -0.1594    2.1383 H         1 <0>         0.0710
     29 H6          0.7568   -1.6008    1.2356 H         1 <0>         0.0617
     30 H7          1.7647   -0.1336    1.2338 H         1 <0>         0.0784
     31 H8         -5.0989   -2.5570   -1.0569 H         1 <0>         0.1388
     32 H9         -4.2311   -3.5023   -3.1348 H         1 <0>         0.1430
     33 H10        -1.9147   -3.0645   -3.8340 H         1 <0>         0.1474
     34 H11        -5.9939   -0.8576   -0.1880 H         1 <0>         0.1326
     35 H12        -8.0530   -0.8104    1.1553 H         1 <0>         0.1362
     36 H13        -5.7247   -0.7454    4.7400 H         1 <0>         0.1350
     37 H14        -3.6595   -0.8027    3.4063 H         1 <0>         0.1330
     38 H15        -8.4920   -1.6243    4.0041 H         1 <0>         0.3945
@<TRIPOS>BOND
     1    1    2 1
     2    1   24 1
     3    1   25 1
     4    1   26 1
     5    2    3 1
     6    2    4 1
     7    2   27 1
     8    3   28 1
     9    3   29 1
    10    3   30 1
    11    4   16 1
    12    4    5 1
    13    5   10 ar
    14    5    6 ar
    15    6    7 ar
    16    6   15 1
    17    7    8 ar
    18    7   31 1
    19    8    9 ar
    20    8   32 1
    21    9   10 ar
    22    9   33 1
    23   10   11 1
    24   11   12 1
    25   11   13 1
    26   11   14 1
    27   15   16 2
    28   15   17 1
    29   17   22 ar
    30   17   18 ar
    31   18   19 ar
    32   18   34 1
    33   19   20 ar
    34   19   35 1
    35   20   21 ar
    36   20   23 1
    37   21   22 ar
    38   21   36 1
    39   22   37 1
    40   23   38 1
