@<TRIPOS>MOLECULE
CHEMBL44940
   67    72     0     0     0
SMALL
USER_CHARGES

@<TRIPOS>ATOM
      1 C1          8.2449    1.6897    5.3605 C.ar      1 <0>        -0.1157
      2 C2          8.1185    2.1541    4.0535 C.ar      1 <0>        -0.1017
      3 C3          7.4228    1.4426    3.1217 C.ar      1 <0>        -0.1178
      4 C4          6.8266    0.2284    3.4818 C.ar      1 <0>        -0.0263
      5 C5          6.9532   -0.2469    4.8101 C.ar      1 <0>        -0.0536
      6 C6          7.6778    0.5130    5.7446 C.ar      1 <0>        -0.0998
      7 C7          6.3542   -1.4665    5.1674 C.ar      1 <0>        -0.0835
      8 C8          5.6564   -2.1926    4.2510 C.ar      1 <0>        -0.1189
      9 C9          5.5070   -1.7662    2.9389 C.ar      1 <0>        -0.0739
     10 C10         6.0718   -0.5682    2.5162 C.ar      1 <0>        -0.0299
     11 C11         5.9145   -0.1127    1.1258 C.2       1 <0>        -0.0513
     12 C12         6.1225   -0.8314   -0.0457 C.2       1 <0>        -0.1615
     13 C13         5.8948   -0.1462   -1.3198 C.ar      1 <0>        -0.0744
     14 C14         6.0389   -0.6625   -2.6277 C.ar      1 <0>        -0.0602
     15 C15         5.7866    0.1126   -3.7162 C.ar      1 <0>        -0.1357
     16 C16         5.3785    1.4369   -3.5834 C.ar      1 <0>         0.1392
     17 C17         5.2261    1.9766   -2.3161 C.ar      1 <0>        -0.1007
     18 C18         5.4811    1.1951   -1.2086 C.ar      1 <0>        -0.1041
     19 S1          5.4041    1.4905    0.5392 S.3       1 <0>         0.0994
     20 O1          5.1324    2.1931   -4.6857 O.3       1 <0>        -0.4905
     21 C19         6.5557   -2.2284   -0.0072 C.2       1 <0>         0.4634
     22 O2          5.7314   -3.1234   -0.0629 O.2       1 <0>        -0.4301
     23 C20         7.9925   -2.5533    0.0994 C.ar      1 <0>        -0.1822
     24 C21         8.9304   -1.5324    0.2751 C.ar      1 <0>        -0.0179
     25 C22        10.2692   -1.8395    0.3740 C.ar      1 <0>        -0.1520
     26 C23        10.6881   -3.1627    0.2988 C.ar      1 <0>         0.1480
     27 C24         9.7583   -4.1810    0.1236 C.ar      1 <0>        -0.2157
     28 C25         8.4171   -3.8828    0.0305 C.ar      1 <0>        -0.0168
     29 O3         12.0085   -3.4612    0.3962 O.3       1 <0>        -0.3241
     30 C26        12.3697   -4.8412    0.3107 C.3       1 <0>         0.0229
     31 C27        13.8879   -4.9800    0.4404 C.3       1 <0>        -0.0009
     32 N1         14.3096   -4.5220    1.7709 N.4       1 <0>        -0.3847
     33 C28        15.7757   -4.5063    1.8394 C.3       1 <0>        -0.0070
     34 C29        16.2209   -3.9532    3.1949 C.3       1 <0>        -0.1467
     35 C30        15.6656   -4.8433    4.3106 C.3       1 <0>        -0.1389
     36 C31        14.1410   -4.9120    4.1842 C.3       1 <0>        -0.1454
     37 C32        13.7729   -5.4296    2.7921 C.3       1 <0>        -0.0135
     38 H1          8.8050    2.2696    6.0791 H         1 <0>         0.1274
     39 H2          8.5777    3.0909    3.7744 H         1 <0>         0.1281
     40 H3          7.3318    1.8138    2.1115 H         1 <0>         0.1301
     41 H4          7.7844    0.1652    6.7615 H         1 <0>         0.1313
     42 H5          6.4486   -1.8320    6.1792 H         1 <0>         0.1321
     43 H6          5.2069   -3.1268    4.5538 H         1 <0>         0.1312
     44 H7          4.9465   -2.3698    2.2404 H         1 <0>         0.1313
     45 H8          6.3540   -1.6864   -2.7643 H         1 <0>         0.1267
     46 H9          5.9056   -0.3077   -4.7040 H         1 <0>         0.1392
     47 H10         4.9102    3.0024   -2.1965 H         1 <0>         0.1434
     48 H11         4.2172    2.1509   -4.9953 H         1 <0>         0.3999
     49 H12         8.6059   -0.5040    0.3329 H         1 <0>         0.1403
     50 H13        10.9947   -1.0511    0.5098 H         1 <0>         0.1405
     51 H14        10.0878   -5.2079    0.0653 H         1 <0>         0.1355
     52 H15         7.6948   -4.6750   -0.1004 H         1 <0>         0.1434
     53 H16        11.8843   -5.3943    1.1148 H         1 <0>         0.0891
     54 H17        12.0491   -5.2418   -0.6509 H         1 <0>         0.1125
     55 H18        14.1697   -6.0248    0.3096 H         1 <0>         0.1503
     56 H19        14.3747   -4.3740   -0.3237 H         1 <0>         0.1435
     57 H20        16.1554   -5.5209    1.7191 H         1 <0>         0.1294
     58 H21        16.1695   -3.8751    1.0429 H         1 <0>         0.1312
     59 H22        17.3097   -3.9441    3.2445 H         1 <0>         0.1133
     60 H23        15.8419   -2.9385    3.3162 H         1 <0>         0.0880
     61 H24        16.0844   -5.8455    4.2198 H         1 <0>         0.0822
     62 H25        15.9324   -4.4219    5.2798 H         1 <0>         0.0949
     63 H26        13.7432   -5.5882    4.9409 H         1 <0>         0.1125
     64 H27        13.7188   -3.9171    4.3260 H         1 <0>         0.0879
     65 H28        12.6880   -5.4799    2.6988 H         1 <0>         0.1271
     66 H29        14.1953   -6.4245    2.6514 H         1 <0>         0.1308
     67 H30        13.9574   -3.5902    1.9320 H         1 <0>         0.4294
@<TRIPOS>BOND
     1    1    6 ar
     2    1    2 ar
     3    1   38 1
     4    2    3 ar
     5    2   39 1
     6    3    4 ar
     7    3   40 1
     8    4   10 ar
     9    4    5 ar
    10    5    6 ar
    11    5    7 ar
    12    6   41 1
    13    7    8 ar
    14    7   42 1
    15    8    9 ar
    16    8   43 1
    17    9   10 ar
    18    9   44 1
    19   10   11 1
    20   11   19 1
    21   11   12 2
    22   12   13 1
    23   12   21 1
    24   13   18 ar
    25   13   14 ar
    26   14   15 ar
    27   14   45 1
    28   15   16 ar
    29   15   46 1
    30   16   17 ar
    31   16   20 1
    32   17   18 ar
    33   17   47 1
    34   18   19 1
    35   20   48 1
    36   21   22 2
    37   21   23 1
    38   23   28 ar
    39   23   24 ar
    40   24   25 ar
    41   24   49 1
    42   25   26 ar
    43   25   50 1
    44   26   27 ar
    45   26   29 1
    46   27   28 ar
    47   27   51 1
    48   28   52 1
    49   29   30 1
    50   30   31 1
    51   30   53 1
    52   30   54 1
    53   31   32 1
    54   31   55 1
    55   31   56 1
    56   32   37 1
    57   32   33 1
    58   32   67 1
    59   33   34 1
    60   33   57 1
    61   33   58 1
    62   34   35 1
    63   34   59 1
    64   34   60 1
    65   35   36 1
    66   35   61 1
    67   35   62 1
    68   36   37 1
    69   36   63 1
    70   36   64 1
    71   37   65 1
    72   37   66 1
