@<TRIPOS>MOLECULE
CHEMBL6318
   62    65     0     0     0
SMALL
USER_CHARGES

@<TRIPOS>ATOM
      1 C1          0.8256   -1.1884    0.5458 C.3       1 <0>        -0.1468
      2 C2          0.0043   -0.0156    0.0066 C.3       1 <0>        -0.0949
      3 C3         -1.4368   -0.4337   -0.1331 C.2       1 <0>        -0.0345
      4 C4         -1.8944   -0.9031   -1.3199 C.2       1 <0>        -0.0615
      5 C5         -3.2676   -1.4439   -1.4214 C.ar      1 <0>        -0.0485
      6 C6         -3.6189   -2.5980   -0.7189 C.ar      1 <0>        -0.0580
      7 C7         -4.8995   -3.0986   -0.8157 C.ar      1 <0>        -0.1381
      8 C8         -5.8397   -2.4567   -1.6112 C.ar      1 <0>         0.1113
      9 C9         -5.4940   -1.3084   -2.3116 C.ar      1 <0>        -0.1989
     10 C10        -4.2171   -0.7984   -2.2154 C.ar      1 <0>        -0.0635
     11 O1         -7.1006   -2.9537   -1.7048 O.3       1 <0>        -0.3254
     12 C11        -8.0173   -2.2440   -2.5404 C.3       1 <0>         0.0282
     13 C12        -9.3756   -2.9480   -2.5204 C.3       1 <0>         0.0010
     14 N1         -9.9453   -2.8744   -1.1683 N.4       1 <0>        -0.3910
     15 C13        -9.1089   -3.6559   -0.2327 C.3       1 <0>        -0.0012
     16 C14       -10.1138   -4.2900    0.7611 C.3       1 <0>        -0.1456
     17 C15       -11.3101   -4.6193   -0.1702 C.3       1 <0>        -0.1419
     18 C16       -11.3049   -3.4448   -1.1711 C.3       1 <0>        -0.0135
     19 C17        -1.0203   -0.8744   -2.5136 C.ar      1 <0>        -0.0199
     20 C18        -0.5919    0.3454   -3.0390 C.ar      1 <0>        -0.1046
     21 C19         0.2228    0.3656   -4.1520 C.ar      1 <0>        -0.0822
     22 C20         0.6150   -0.8207   -4.7478 C.ar      1 <0>        -0.0972
     23 C21         0.1933   -2.0337   -4.2313 C.ar      1 <0>        -0.0816
     24 C22        -0.6165   -2.0672   -3.1150 C.ar      1 <0>        -0.1003
     25 I1          1.8513   -0.7801   -6.4387 I         1 <0>        -0.0365
     26 C23        -2.3466   -0.3325    1.0177 C.ar      1 <0>        -0.0473
     27 C24        -3.4335    0.5474    0.9796 C.ar      1 <0>        -0.0991
     28 C25        -4.2822    0.6361    2.0626 C.ar      1 <0>        -0.1201
     29 C26        -4.0611   -0.1425    3.1853 C.ar      1 <0>        -0.1172
     30 C27        -2.9881   -1.0155    3.2309 C.ar      1 <0>        -0.1169
     31 C28        -2.1332   -1.1198    2.1542 C.ar      1 <0>        -0.1055
     32 H1          1.8836   -0.9265    0.5349 H         1 <0>         0.0634
     33 H2          0.5165   -1.4092    1.5674 H         1 <0>         0.0573
     34 H3          0.6619   -2.0652   -0.0809 H         1 <0>         0.0566
     35 H4          0.0735    0.8245    0.6976 H         1 <0>         0.0750
     36 H5          0.3923    0.2823   -0.9675 H         1 <0>         0.0822
     37 H6         -2.8881   -3.0981   -0.1006 H         1 <0>         0.1321
     38 H7         -5.1720   -3.9914   -0.2725 H         1 <0>         0.1314
     39 H8         -6.2278   -0.8122   -2.9295 H         1 <0>         0.1265
     40 H9         -3.9502    0.0970   -2.7572 H         1 <0>         0.1284
     41 H10        -8.1308   -1.2247   -2.1715 H         1 <0>         0.0852
     42 H11        -7.6352   -2.2207   -3.5610 H         1 <0>         0.1085
     43 H12       -10.0484   -2.4595   -3.2252 H         1 <0>         0.1487
     44 H13        -9.2477   -3.9925   -2.8044 H         1 <0>         0.1403
     45 H14        -8.5641   -4.4329   -0.7691 H         1 <0>         0.1375
     46 H15        -8.4158   -3.0005    0.2947 H         1 <0>         0.1341
     47 H16        -9.7038   -5.1969    1.2056 H         1 <0>         0.1161
     48 H17       -10.4039   -3.5760    1.5319 H         1 <0>         0.0967
     49 H18       -11.1480   -5.5658   -0.6858 H         1 <0>         0.0985
     50 H19       -12.2427   -4.6411    0.3936 H         1 <0>         0.1123
     51 H20       -12.0250   -2.6884   -0.8590 H         1 <0>         0.1324
     52 H21       -11.5532   -3.8068   -2.1688 H         1 <0>         0.1317
     53 H22        -0.8978    1.2716   -2.5755 H         1 <0>         0.1317
     54 H23         0.5550    1.3089   -4.5596 H         1 <0>         0.1324
     55 H24         0.5026   -2.9560   -4.7005 H         1 <0>         0.1312
     56 H25        -0.9410   -3.0143   -2.7100 H         1 <0>         0.1290
     57 H26        -3.6071    1.1559    0.1044 H         1 <0>         0.1185
     58 H27        -5.1216    1.3151    2.0349 H         1 <0>         0.1199
     59 H28        -4.7294   -0.0682    4.0305 H         1 <0>         0.1208
     60 H29        -2.8221   -1.6194    4.1108 H         1 <0>         0.1241
     61 H30        -1.2989   -1.8047    2.1895 H         1 <0>         0.1250
     62 H31        -9.9813   -1.9124   -0.8661 H         1 <0>         0.4243
@<TRIPOS>BOND
     1    1    2 1
     2    1   32 1
     3    1   33 1
     4    1   34 1
     5    2    3 1
     6    2   35 1
     7    2   36 1
     8    3    4 2
     9    3   26 1
    10    4    5 1
    11    4   19 1
    12    5   10 ar
    13    5    6 ar
    14    6    7 ar
    15    6   37 1
    16    7    8 ar
    17    7   38 1
    18    8    9 ar
    19    8   11 1
    20    9   10 ar
    21    9   39 1
    22   10   40 1
    23   11   12 1
    24   12   13 1
    25   12   41 1
    26   12   42 1
    27   13   14 1
    28   13   43 1
    29   13   44 1
    30   14   18 1
    31   14   15 1
    32   14   62 1
    33   15   16 1
    34   15   45 1
    35   15   46 1
    36   16   17 1
    37   16   47 1
    38   16   48 1
    39   17   18 1
    40   17   49 1
    41   17   50 1
    42   18   51 1
    43   18   52 1
    44   19   24 ar
    45   19   20 ar
    46   20   21 ar
    47   20   53 1
    48   21   22 ar
    49   21   54 1
    50   22   23 ar
    51   22   25 1
    52   23   24 ar
    53   23   55 1
    54   24   56 1
    55   26   31 ar
    56   26   27 ar
    57   27   28 ar
    58   27   57 1
    59   28   29 ar
    60   28   58 1
    61   29   30 ar
    62   29   59 1
    63   30   31 ar
    64   30   60 1
    65   31   61 1
