@<TRIPOS>MOLECULE
CHEMBL298398
   26    28     0     0     0
SMALL
USER_CHARGES

@<TRIPOS>ATOM
      1 C1         -0.0168    1.3845    0.0097 C.ar      1 <0>        -0.1270
      2 C2          1.1650    2.1000    0.0022 C.ar      1 <0>        -0.0478
      3 C3          2.3841    1.4267   -0.0127 C.ar      1 <0>        -0.1325
      4 C4          2.4065    0.0182   -0.0203 C.ar      1 <0>        -0.1001
      5 C5          1.2129   -0.6904   -0.0126 C.ar      1 <0>        -0.0965
      6 C6          0.0021   -0.0041    0.0020 C.ar      1 <0>         0.1340
      7 O1         -1.1658   -0.6952    0.0093 O.3       1 <0>        -0.4919
      8 C7          3.7040   -0.6939   -0.0350 C.2       1 <0>         0.4378
      9 O2          3.7510   -1.8807   -0.2926 O.2       1 <0>        -0.4231
     10 C8          4.9408    0.0547    0.2666 C.ar      1 <0>        -0.1324
     11 C9          6.1265   -0.6209    0.5446 C.ar      1 <0>        -0.0479
     12 C10         7.2758    0.0924    0.8256 C.ar      1 <0>        -0.1270
     13 C11         7.2572    1.4810    0.8327 C.ar      1 <0>         0.1339
     14 C12         6.0794    2.1695    0.5572 C.ar      1 <0>        -0.0965
     15 C13         4.9185    1.4631    0.2736 C.ar      1 <0>        -0.1000
     16 C14         3.6559    2.1775   -0.0200 C.2       1 <0>         0.4378
     17 O3          3.6655    3.3681   -0.2639 O.2       1 <0>        -0.4231
     18 O4          8.3930    2.1700    1.1100 O.3       1 <0>        -0.4918
     19 H1         -0.9611    1.9083    0.0260 H         1 <0>         0.1462
     20 H2          1.1436    3.1797    0.0076 H         1 <0>         0.1494
     21 H3          1.2237   -1.7704   -0.0192 H         1 <0>         0.1505
     22 H4         -1.5126   -0.8908   -0.8720 H         1 <0>         0.4010
     23 H5          6.1475   -1.7007    0.5409 H         1 <0>         0.1494
     24 H6          8.1943   -0.4331    1.0416 H         1 <0>         0.1462
     25 H7          6.0688    3.2495    0.5633 H         1 <0>         0.1505
     26 H8          8.9276    2.3768    0.3312 H         1 <0>         0.4009
@<TRIPOS>BOND
     1    1    6 ar
     2    1    2 ar
     3    1   19 1
     4    2    3 ar
     5    2   20 1
     6    3   16 1
     7    3    4 ar
     8    4    5 ar
     9    4    8 1
    10    5    6 ar
    11    5   21 1
    12    6    7 1
    13    7   22 1
    14    8    9 2
    15    8   10 1
    16   10   15 ar
    17   10   11 ar
    18   11   12 ar
    19   11   23 1
    20   12   13 ar
    21   12   24 1
    22   13   14 ar
    23   13   18 1
    24   14   15 ar
    25   14   25 1
    26   15   16 1
    27   16   17 2
    28   18   26 1
