@<TRIPOS>MOLECULE
CHEMBL77620
   35    37     0     0     0
SMALL
USER_CHARGES

@<TRIPOS>ATOM
      1 C1         -0.0184    1.5028    0.0103 C.3       1 <0>        -0.1136
      2 C2          0.0021   -0.0041    0.0020 C.ar      1 <0>         0.0034
      3 C3          0.0058   -0.6895   -1.1953 C.ar      1 <0>        -0.1707
      4 C4          0.0241   -2.0784   -1.2078 C.ar      1 <0>         0.1559
      5 C5          0.0409   -2.7896   -0.0149 C.ar      1 <0>        -0.1700
      6 C6          0.0385   -2.1129    1.1886 C.ar      1 <0>         0.1141
      7 C7          0.0231   -0.7099    1.2043 C.ar      1 <0>        -0.0073
      8 N1          0.0205   -0.0519    2.4027 N.2       1 <0>        -0.4311
      9 C8          0.3482   -0.6844    3.4942 C.2       1 <0>         0.1633
     10 C9          0.7491   -2.1358    3.4477 C.3       1 <0>         0.0847
     11 O1          0.0584   -2.7870    2.3692 O.3       1 <0>        -0.2923
     12 C10         2.2606   -2.2404    3.2346 C.3       1 <0>        -0.1762
     13 C11         0.3270    0.0254    4.7828 C.ar      1 <0>        -0.0606
     14 C12         0.6828   -0.6440    5.9586 C.ar      1 <0>        -0.0658
     15 C13         0.6614    0.0244    7.1625 C.ar      1 <0>        -0.1393
     16 C14         0.2872    1.3618    7.2110 C.ar      1 <0>         0.1543
     17 C15        -0.0677    2.0317    6.0457 C.ar      1 <0>        -0.1271
     18 C16        -0.0435    1.3732    4.8353 C.ar      1 <0>        -0.0284
     19 Br1        -0.5763    3.8515    6.1204 Br        1 <0>        -0.0279
     20 O2          0.2678    2.0164    8.4007 O.3       1 <0>        -0.4844
     21 O3          0.0260   -2.7442   -2.3923 O.3       1 <0>        -0.4920
     22 H1          1.0042    1.8801    0.0026 H         1 <0>         0.0761
     23 H2         -0.5455    1.8639   -0.8728 H         1 <0>         0.0716
     24 H3         -0.5286    1.8543    0.9071 H         1 <0>         0.0821
     25 H4         -0.0060   -0.1437   -2.1272 H         1 <0>         0.1405
     26 H5          0.0554   -3.8694   -0.0287 H         1 <0>         0.1426
     27 H6          0.4814   -2.6167    4.3885 H         1 <0>         0.1379
     28 H7          2.7785   -1.7464    4.0567 H         1 <0>         0.0835
     29 H8          2.5510   -3.2905    3.2009 H         1 <0>         0.0810
     30 H9          2.5291   -1.7588    2.2943 H         1 <0>         0.0621
     31 H10         0.9735   -1.6835    5.9223 H         1 <0>         0.1405
     32 H11         0.9357   -0.4918    8.0706 H         1 <0>         0.1465
     33 H12        -0.3146    1.8954    3.9297 H         1 <0>         0.1504
     34 H13         1.1041    2.4458    8.6270 H         1 <0>         0.3990
     35 H14         0.9099   -2.9252   -2.7403 H         1 <0>         0.3975
@<TRIPOS>BOND
     1    1    2 1
     2    1   22 1
     3    1   23 1
     4    1   24 1
     5    2    7 ar
     6    2    3 ar
     7    3    4 ar
     8    3   25 1
     9    4    5 ar
    10    4   21 1
    11    5    6 ar
    12    5   26 1
    13    6   11 1
    14    6    7 ar
    15    7    8 1
    16    8    9 2
    17    9   10 1
    18    9   13 1
    19   10   11 1
    20   10   12 1
    21   10   27 1
    22   12   28 1
    23   12   29 1
    24   12   30 1
    25   13   18 ar
    26   13   14 ar
    27   14   15 ar
    28   14   31 1
    29   15   16 ar
    30   15   32 1
    31   16   17 ar
    32   16   20 1
    33   17   18 ar
    34   17   19 1
    35   18   33 1
    36   20   34 1
    37   21   35 1
