@<TRIPOS>MOLECULE
CHEMBL366928
   67    72     0     0     0
SMALL
USER_CHARGES

@<TRIPOS>ATOM
      1 C1         -1.3661   -1.0325    3.5170 C.ar      1 <0>        -0.0729
      2 C2         -0.9889   -1.3553    4.8018 C.ar      1 <0>        -0.1469
      3 C3         -0.8421   -2.6868    5.1713 C.ar      1 <0>         0.1270
      4 C4         -1.0750   -3.6983    4.2475 C.ar      1 <0>        -0.1394
      5 C5         -1.4527   -3.3850    2.9605 C.ar      1 <0>        -0.0721
      6 C6         -1.6015   -2.0468    2.5842 C.ar      1 <0>        -0.0426
      7 C7         -2.0055   -1.7063    1.2078 C.2       1 <0>        -0.0510
      8 C8         -1.5072   -2.2113    0.0140 C.2       1 <0>        -0.1634
      9 C9         -2.0808   -1.7079   -1.2365 C.ar      1 <0>        -0.0734
     10 C10        -1.7404   -2.0674   -2.5602 C.ar      1 <0>        -0.0609
     11 C11        -2.3796   -1.4955   -3.6286 C.ar      1 <0>        -0.1370
     12 C12        -3.3811   -0.5462   -3.4456 C.ar      1 <0>         0.1371
     13 C13        -3.7371   -0.1738   -2.1594 C.ar      1 <0>        -0.1006
     14 C14        -3.0965   -0.7461   -1.0805 C.ar      1 <0>        -0.1024
     15 S1         -3.2560   -0.5537    0.6763 S.3       1 <0>         0.0943
     16 O1         -4.0035    0.0103   -4.5183 O.3       1 <0>        -0.4912
     17 C15        -0.4422   -3.2145    0.0054 C.2       1 <0>         0.4635
     18 O2         -0.7215   -4.3988   -0.0535 O.2       1 <0>        -0.4366
     19 C16         0.9708   -2.7915    0.0682 C.ar      1 <0>        -0.2000
     20 C17         1.2976   -1.4329    0.0287 C.ar      1 <0>        -0.0100
     21 C18         2.6157   -1.0418    0.0879 C.ar      1 <0>        -0.2006
     22 C19         3.6231   -1.9975    0.1871 C.ar      1 <0>         0.2339
     23 C20         3.3009   -3.3513    0.2267 C.ar      1 <0>        -0.2002
     24 C21         1.9843   -3.7485    0.1732 C.ar      1 <0>        -0.0075
     25 N1          4.9545   -1.5990    0.2463 N.pl3     1 <0>        -0.6378
     26 C22         6.0420   -2.5894    0.2289 C.3       1 <0>         0.0970
     27 C23         7.0568   -2.1778   -0.8429 C.3       1 <0>        -0.0234
     28 N2          7.4968   -0.7990   -0.5951 N.4       1 <0>        -0.3793
     29 C24         6.3640    0.1226   -0.7489 C.3       1 <0>        -0.0272
     30 C25         5.3151   -0.1748    0.3218 C.3       1 <0>         0.0963
     31 C26         8.5495   -0.4427   -1.5557 C.3       1 <0>         0.0194
     32 C27         9.7803   -1.3499   -1.3515 C.3       1 <0>        -0.1422
     33 C28        10.9883   -0.4128   -1.5996 C.3       1 <0>        -0.1245
     34 C29        10.5229    0.9205   -0.9634 C.3       1 <0>        -0.1304
     35 C30         9.0216    1.0009   -1.3090 C.3       1 <0>        -0.1446
     36 O3         -0.4696   -3.0004    6.4389 O.3       1 <0>        -0.4982
     37 H1         -1.4843    0.0025    3.2320 H         1 <0>         0.1338
     38 H2         -0.8065   -0.5724    5.5230 H         1 <0>         0.1372
     39 H3         -0.9594   -4.7318    4.5390 H         1 <0>         0.1374
     40 H4         -1.6331   -4.1718    2.2430 H         1 <0>         0.1342
     41 H5         -0.9669   -2.8014   -2.7317 H         1 <0>         0.1274
     42 H6         -2.1011   -1.7862   -4.6308 H         1 <0>         0.1386
     43 H7         -4.5122    0.5617   -2.0025 H         1 <0>         0.1426
     44 H8         -4.7894   -0.4713   -4.8106 H         1 <0>         0.3997
     45 H9          0.5165   -0.6911   -0.0486 H         1 <0>         0.1333
     46 H10         2.8689    0.0077    0.0570 H         1 <0>         0.1300
     47 H11         4.0847   -4.0903    0.3033 H         1 <0>         0.1310
     48 H12         1.7347   -4.7987    0.2081 H         1 <0>         0.1399
     49 H13         6.5291   -2.6158    1.2036 H         1 <0>         0.0909
     50 H14         5.6376   -3.5734   -0.0084 H         1 <0>         0.1292
     51 H15         7.9170   -2.8462   -0.8047 H         1 <0>         0.1419
     52 H16         6.5917   -2.2397   -1.8267 H         1 <0>         0.1335
     53 H17         6.7137    1.1494   -0.6415 H         1 <0>         0.1434
     54 H18         5.9198   -0.0088   -1.7355 H         1 <0>         0.1337
     55 H19         4.4302    0.4369    0.1460 H         1 <0>         0.1295
     56 H20         5.7275    0.0469    1.3061 H         1 <0>         0.0906
     57 H21         8.1749   -0.5441   -2.5743 H         1 <0>         0.1395
     58 H22         9.8024   -1.7394   -0.3337 H         1 <0>         0.0869
     59 H23         9.7764   -2.1665   -2.0735 H         1 <0>         0.0981
     60 H24        11.8793   -0.7900   -1.0977 H         1 <0>         0.0891
     61 H25        11.1683   -0.2891   -2.6675 H         1 <0>         0.0837
     62 H26        10.6649    0.8977    0.1171 H         1 <0>         0.0777
     63 H27        11.0609    1.7608   -1.4021 H         1 <0>         0.0879
     64 H28         8.8770    1.5999   -2.2081 H         1 <0>         0.1032
     65 H29         8.4696    1.4371   -0.4764 H         1 <0>         0.0849
     66 H30        -1.2048   -3.0442    7.0655 H         1 <0>         0.3984
     67 H31         7.8623   -0.7272    0.3426 H         1 <0>         0.4205
@<TRIPOS>BOND
     1    1    6 ar
     2    1    2 ar
     3    1   37 1
     4    2    3 ar
     5    2   38 1
     6    3    4 ar
     7    3   36 1
     8    4    5 ar
     9    4   39 1
    10    5    6 ar
    11    5   40 1
    12    6    7 1
    13    7   15 1
    14    7    8 2
    15    8    9 1
    16    8   17 1
    17    9   14 ar
    18    9   10 ar
    19   10   11 ar
    20   10   41 1
    21   11   12 ar
    22   11   42 1
    23   12   13 ar
    24   12   16 1
    25   13   14 ar
    26   13   43 1
    27   14   15 1
    28   16   44 1
    29   17   18 2
    30   17   19 1
    31   19   24 ar
    32   19   20 ar
    33   20   21 ar
    34   20   45 1
    35   21   22 ar
    36   21   46 1
    37   22   23 ar
    38   22   25 1
    39   23   24 ar
    40   23   47 1
    41   24   48 1
    42   25   30 1
    43   25   26 1
    44   26   27 1
    45   26   49 1
    46   26   50 1
    47   27   28 1
    48   27   51 1
    49   27   52 1
    50   28   29 1
    51   28   31 1
    52   28   67 1
    53   29   30 1
    54   29   53 1
    55   29   54 1
    56   30   55 1
    57   30   56 1
    58   31   35 1
    59   31   32 1
    60   31   57 1
    61   32   33 1
    62   32   58 1
    63   32   59 1
    64   33   34 1
    65   33   60 1
    66   33   61 1
    67   34   35 1
    68   34   62 1
    69   34   63 1
    70   35   64 1
    71   35   65 1
    72   36   66 1
