@<TRIPOS>MOLECULE
CHEMBL93391
   56    59     0     0     0
SMALL
USER_CHARGES

@<TRIPOS>ATOM
      1 C1         -0.2089    1.1650   -6.4228 C.3       1 <0>         0.0846
      2 N1         -0.2197   -0.2804   -6.1838 N.am      1 <0>        -0.6223
      3 C2         -0.3893   -1.2070   -7.3058 C.3       1 <0>         0.0773
      4 C3         -0.0737   -0.7575   -4.9319 C.2       1 <0>         0.5485
      5 O1          0.0672    0.0125   -3.9996 O.2       1 <0>        -0.5486
      6 C4         -0.0845   -2.1999   -4.6934 C.2       1 <0>        -0.2432
      7 C5          0.0619   -2.6780   -3.4389 C.2       1 <0>         0.0074
      8 C6          0.0511   -4.1275   -3.1993 C.ar      1 <0>        -0.1456
      9 C7         -0.1051   -5.0152   -4.2710 C.ar      1 <0>        -0.0427
     10 C8         -0.1142   -6.3670   -4.0430 C.ar      1 <0>        -0.2022
     11 C9          0.0316   -6.8577   -2.7481 C.ar      1 <0>         0.2450
     12 C10         0.1867   -5.9785   -1.6795 C.ar      1 <0>        -0.2022
     13 C11         0.2027   -4.6254   -1.8993 C.ar      1 <0>        -0.0370
     14 N2          0.0218   -8.2302   -2.5212 N.pl3     1 <0>        -0.6113
     15 C12         0.0393   -8.7807   -1.1558 C.3       1 <0>         0.1081
     16 C13         1.3444   -9.5550   -0.9785 C.3       1 <0>        -0.1014
     17 C14         1.5873  -10.4716   -2.1486 C.ar      1 <0>        -0.0477
     18 C15         2.4662  -11.5311   -1.9638 C.ar      1 <0>        -0.1473
     19 C16         2.7413  -12.4058   -3.0005 C.ar      1 <0>         0.1123
     20 C17         2.1353  -12.2211   -4.2351 C.ar      1 <0>        -0.1447
     21 C18         1.2610  -11.1707   -4.4156 C.ar      1 <0>        -0.0875
     22 C19         0.9807  -10.2973   -3.3727 C.ar      1 <0>        -0.0968
     23 C20        -0.0125   -9.1868   -3.6326 C.3       1 <0>         0.2357
     24 C21        -1.3986   -9.7656   -3.7534 C.ar      1 <0>        -0.0952
     25 C22        -2.1594   -9.5083   -4.8786 C.ar      1 <0>        -0.1058
     26 C23        -3.4309  -10.0392   -4.9894 C.ar      1 <0>        -0.1172
     27 C24        -3.9415  -10.8278   -3.9753 C.ar      1 <0>        -0.1145
     28 C25        -3.1804  -11.0858   -2.8506 C.ar      1 <0>        -0.1196
     29 C26        -1.9072  -10.5584   -2.7417 C.ar      1 <0>        -0.1032
     30 O2          3.6007  -13.4412   -2.8101 O.3       1 <0>        -0.4988
     31 H1         -1.2252    1.5526   -6.3521 H         1 <0>         0.0548
     32 H2          0.4184    1.6520   -5.6762 H         1 <0>         0.0771
     33 H3          0.1881    1.3658   -7.4179 H         1 <0>         0.0695
     34 H4          0.5876   -1.4660   -7.7140 H         1 <0>         0.0578
     35 H5         -0.8890   -2.1112   -6.9579 H         1 <0>         0.0747
     36 H6         -0.9928   -0.7335   -8.0801 H         1 <0>         0.0725
     37 H7         -0.2095   -2.8830   -5.5205 H         1 <0>         0.1289
     38 H8          0.1869   -1.9948   -2.6119 H         1 <0>         0.1316
     39 H9         -0.2186   -4.6354   -5.2756 H         1 <0>         0.1254
     40 H10        -0.2349   -7.0524   -4.8689 H         1 <0>         0.1228
     41 H11         0.2987   -6.3633   -0.6766 H         1 <0>         0.1271
     42 H12         0.3274   -3.9443   -1.0705 H         1 <0>         0.1279
     43 H13        -0.0093   -7.9688   -0.4302 H         1 <0>         0.0941
     44 H14        -0.8090   -9.4511   -1.0175 H         1 <0>         0.0792
     45 H15         2.1716   -8.8498   -0.8978 H         1 <0>         0.0856
     46 H16         1.2887  -10.1470   -0.0649 H         1 <0>         0.0881
     47 H17         2.9385  -11.6738   -1.0031 H         1 <0>         0.1294
     48 H18         2.3479  -12.8966   -5.0505 H         1 <0>         0.1313
     49 H19         0.7898  -11.0256   -5.3764 H         1 <0>         0.1274
     50 H20         0.2484   -8.6755   -4.5593 H         1 <0>         0.1054
     51 H21        -1.7605   -8.8922   -5.6709 H         1 <0>         0.1215
     52 H22        -4.0256   -9.8376   -5.8681 H         1 <0>         0.1241
     53 H23        -4.9351  -11.2420   -4.0616 H         1 <0>         0.1226
     54 H24        -3.5794  -11.7016   -2.0582 H         1 <0>         0.1223
     55 H25        -1.3111  -10.7631   -1.8646 H         1 <0>         0.1224
     56 H26         3.1759  -14.2532   -2.5014 H         1 <0>         0.3923
@<TRIPOS>BOND
     1    1    2 1
     2    1   31 1
     3    1   32 1
     4    1   33 1
     5    2    3 1
     6    2    4 am
     7    3   34 1
     8    3   35 1
     9    3   36 1
    10    4    5 2
    11    4    6 1
    12    6    7 2
    13    6   37 1
    14    7    8 1
    15    7   38 1
    16    8   13 ar
    17    8    9 ar
    18    9   10 ar
    19    9   39 1
    20   10   11 ar
    21   10   40 1
    22   11   12 ar
    23   11   14 1
    24   12   13 ar
    25   12   41 1
    26   13   42 1
    27   14   23 1
    28   14   15 1
    29   15   16 1
    30   15   43 1
    31   15   44 1
    32   16   17 1
    33   16   45 1
    34   16   46 1
    35   17   22 ar
    36   17   18 ar
    37   18   19 ar
    38   18   47 1
    39   19   20 ar
    40   19   30 1
    41   20   21 ar
    42   20   48 1
    43   21   22 ar
    44   21   49 1
    45   22   23 1
    46   23   24 1
    47   23   50 1
    48   24   29 ar
    49   24   25 ar
    50   25   26 ar
    51   25   51 1
    52   26   27 ar
    53   26   52 1
    54   27   28 ar
    55   27   53 1
    56   28   29 ar
    57   28   54 1
    58   29   55 1
    59   30   56 1
