@<TRIPOS>MOLECULE
CHEMBL184371
   74    80     0     0     0
SMALL
USER_CHARGES

@<TRIPOS>ATOM
      1 C1          1.1631   -0.6117   -0.4390 C.ar      1 <0>        -0.0873
      2 C2          2.3518    0.0921   -0.4484 C.ar      1 <0>        -0.1390
      3 C3          2.3800    1.4096   -0.0147 C.ar      1 <0>         0.1157
      4 C4          1.2137    2.0170    0.4273 C.ar      1 <0>        -0.1461
      5 C5          0.0275    1.3089    0.4346 C.ar      1 <0>        -0.0836
      6 C6          0.0021   -0.0041    0.0020 C.ar      1 <0>        -0.0893
      7 C7         -1.2934   -0.7740    0.0107 C.3       1 <0>        -0.0642
      8 H1         -2.1334   -0.0869    0.1120 H         1 <0>         0.1382
      9 C8         -1.2969   -1.7821    1.1721 C.3       1 <0>         0.1495
     10 H2         -2.1779   -2.4197    1.0986 H         1 <0>         0.0960
     11 O1         -0.1255   -2.5802    1.0967 O.3       1 <0>        -0.3050
     12 C9          0.1551   -3.3416    0.0132 C.ar      1 <0>         0.1212
     13 C10         0.9986   -4.4351    0.1946 C.ar      1 <0>        -0.1141
     14 C11         1.3394   -5.2447   -0.8692 C.ar      1 <0>        -0.1062
     15 C12         0.8443   -4.9772   -2.1372 C.ar      1 <0>         0.0986
     16 C13        -0.0005   -3.8960   -2.3286 C.ar      1 <0>        -0.0901
     17 C14        -0.3494   -3.0850   -1.2568 C.ar      1 <0>        -0.1477
     18 S1         -1.4568   -1.7323   -1.5285 S.3       1 <0>        -0.0841
     19 O2          1.1866   -5.7716   -3.1864 O.3       1 <0>        -0.4915
     20 C15        -1.3198   -1.0400    2.4835 C.ar      1 <0>        -0.1042
     21 C16        -0.1522   -0.5024    2.9927 C.ar      1 <0>        -0.0351
     22 C17        -0.1704    0.1779    4.1949 C.ar      1 <0>        -0.1419
     23 C18        -1.3617    0.3218    4.8912 C.ar      1 <0>         0.1197
     24 C19        -2.5320   -0.2182    4.3779 C.ar      1 <0>        -0.2022
     25 C20        -2.5094   -0.8931    3.1727 C.ar      1 <0>        -0.0591
     26 O3         -1.3822    0.9902    6.0743 O.3       1 <0>        -0.3218
     27 C21        -2.6441    1.0995    6.7359 C.3       1 <0>         0.0275
     28 C22        -2.4698    1.8785    8.0411 C.3       1 <0>        -0.0076
     29 N1         -2.0692    3.2589    7.7377 N.4       1 <0>        -0.3530
     30 C23        -0.8407    3.2181    6.9983 C.3       1 <0>        -0.0091
     31 C24        -0.0048    4.4653    7.0302 C.3       1 <0>        -0.1002
     32 C25         1.0226    4.3835    8.1572 C.3       1 <0>        -0.1174
     33 C26         0.3528    4.7261    9.4835 C.3       1 <0>        -0.0946
     34 C27        -0.1345    6.1760    9.4308 C.3       1 <0>        -0.1145
     35 C28        -1.2324    6.2686    8.3701 C.3       1 <0>        -0.0931
     36 C29        -0.7526    5.7664    7.0250 C.3       1 <0>        -0.1153
     37 C30        -2.4345    5.4476    8.8452 C.3       1 <0>        -0.1252
     38 C31        -2.0276    3.9959    8.9684 C.3       1 <0>         0.0205
     39 C32        -0.7915    3.7824    9.8108 C.3       1 <0>        -0.1149
     40 O4          3.5482    2.1039   -0.0225 O.3       1 <0>        -0.5000
     41 H3          1.1398   -1.6359   -0.7807 H         1 <0>         0.1322
     42 H4          3.2585   -0.3831   -0.7926 H         1 <0>         0.1313
     43 H5          1.2331    3.0424    0.7657 H         1 <0>         0.1291
     44 H6         -0.8807    1.7813    0.7787 H         1 <0>         0.1235
     45 H7          1.3899   -4.6512    1.1778 H         1 <0>         0.1412
     46 H8          1.9942   -6.0894   -0.7144 H         1 <0>         0.1429
     47 H9         -0.3883   -3.6831   -3.3139 H         1 <0>         0.1405
     48 H10         0.5878   -6.5179   -3.3264 H         1 <0>         0.3946
     49 H11         0.7750   -0.6147    2.4504 H         1 <0>         0.1382
     50 H12         0.7420    0.5970    4.5927 H         1 <0>         0.1342
     51 H13        -3.4607   -0.1075    4.9180 H         1 <0>         0.1317
     52 H14        -3.4210   -1.3098    2.7705 H         1 <0>         0.1342
     53 H15        -3.3483    1.6246    6.0906 H         1 <0>         0.0877
     54 H16        -3.0265    0.1028    6.9560 H         1 <0>         0.1122
     55 H17        -3.4123    1.8857    8.5886 H         1 <0>         0.1521
     56 H18        -1.7003    1.4021    8.6486 H         1 <0>         0.1417
     57 H19        -0.2386    2.3964    7.3859 H         1 <0>         0.1307
     58 H20        -1.0783    2.9957    5.9580 H         1 <0>         0.1325
     59 H21         0.5829    4.4537    6.1123 H         1 <0>         0.1002
     60 H22         1.4287    3.3732    8.2057 H         1 <0>         0.0735
     61 H23         1.8298    5.0903    7.9648 H         1 <0>         0.0845
     62 H24         1.0984    4.6512   10.2750 H         1 <0>         0.0868
     63 H25        -0.5355    6.4653   10.4022 H         1 <0>         0.0752
     64 H26         0.6929    6.8331    9.1627 H         1 <0>         0.0781
     65 H27        -1.5422    7.3089    8.2705 H         1 <0>         0.0909
     66 H28        -0.1052    6.5278    6.5900 H         1 <0>         0.0856
     67 H29        -1.6207    5.6559    6.3751 H         1 <0>         0.0627
     68 H30        -2.7668    5.8163    9.8156 H         1 <0>         0.1118
     69 H31        -3.2458    5.5384    8.1229 H         1 <0>         0.0839
     70 H32        -2.8222    3.5520    9.5682 H         1 <0>         0.1111
     71 H33        -0.4477    2.7579    9.6688 H         1 <0>         0.0792
     72 H34        -1.0595    3.9127   10.8593 H         1 <0>         0.1047
     73 H35         3.7178    2.5792   -0.8474 H         1 <0>         0.3955
     74 H36        -2.7771    3.6692    7.1473 H         1 <0>         0.4165
@<TRIPOS>BOND
     1    1    6 ar
     2    1    2 ar
     3    1   41 1
     4    2    3 ar
     5    2   42 1
     6    3    4 ar
     7    3   40 1
     8    4    5 ar
     9    4   43 1
    10    5    6 ar
    11    5   44 1
    12    6    7 1
    13    7    8 1
    14    7   18 1
    15    7    9 1
    16    9   10 1
    17    9   11 1
    18    9   20 1
    19   11   12 1
    20   12   17 ar
    21   12   13 ar
    22   13   14 ar
    23   13   45 1
    24   14   15 ar
    25   14   46 1
    26   15   16 ar
    27   15   19 1
    28   16   17 ar
    29   16   47 1
    30   17   18 1
    31   19   48 1
    32   20   25 ar
    33   20   21 ar
    34   21   22 ar
    35   21   49 1
    36   22   23 ar
    37   22   50 1
    38   23   24 ar
    39   23   26 1
    40   24   25 ar
    41   24   51 1
    42   25   52 1
    43   26   27 1
    44   27   28 1
    45   27   53 1
    46   27   54 1
    47   28   29 1
    48   28   55 1
    49   28   56 1
    50   29   38 1
    51   29   30 1
    52   29   74 1
    53   30   31 1
    54   30   57 1
    55   30   58 1
    56   31   36 1
    57   31   32 1
    58   31   59 1
    59   32   33 1
    60   32   60 1
    61   32   61 1
    62   33   39 1
    63   33   34 1
    64   33   62 1
    65   34   35 1
    66   34   63 1
    67   34   64 1
    68   35   36 1
    69   35   37 1
    70   35   65 1
    71   36   66 1
    72   36   67 1
    73   37   38 1
    74   37   68 1
    75   37   69 1
    76   38   39 1
    77   38   70 1
    78   39   71 1
    79   39   72 1
    80   40   73 1
