@<TRIPOS>MOLECULE
CHEMBL469511
   63    67     0     0     0
SMALL
USER_CHARGES

@<TRIPOS>ATOM
      1 C1         -0.0169    1.3951    0.0097 C.ar      1 <0>        -0.0866
      2 C2          1.1682    2.0976    0.0022 C.ar      1 <0>        -0.1411
      3 C3          2.3805    1.4194   -0.0130 C.ar      1 <0>         0.1092
      4 C4          2.4052    0.0305   -0.0207 C.ar      1 <0>        -0.1451
      5 C5          1.2261   -0.6820   -0.0133 C.ar      1 <0>        -0.0826
      6 C6          0.0021   -0.0041    0.0020 C.ar      1 <0>        -0.0539
      7 C7         -1.2594   -0.7590    0.0105 C.2       1 <0>        -0.0509
      8 C8         -1.6051   -1.5390   -1.0535 C.2       1 <0>        -0.0325
      9 C9         -2.9096   -2.2328   -1.0421 C.ar      1 <0>        -0.0851
     10 C10        -3.0058   -3.5871   -1.3524 C.ar      1 <0>        -0.0766
     11 C11        -4.2376   -4.2079   -1.3327 C.ar      1 <0>        -0.1517
     12 C12        -5.3795   -3.4871   -1.0051 C.ar      1 <0>         0.1315
     13 C13        -5.2915   -2.1371   -0.6945 C.ar      1 <0>        -0.1572
     14 C14        -4.0621   -1.5059   -0.7112 C.ar      1 <0>         0.1320
     15 O1         -3.9514   -0.1865   -0.4101 O.3       1 <0>        -0.3231
     16 C15        -3.4193    0.1537    0.8632 C.3       1 <0>         0.0727
     17 C16        -2.1853   -0.6863    1.1983 C.3       1 <0>        -0.1218
     18 O2         -6.5884   -4.1068   -0.9890 O.3       1 <0>        -0.4948
     19 C17        -0.6866   -1.6879   -2.2039 C.ar      1 <0>        -0.0502
     20 C18        -0.3762   -0.5835   -2.9990 C.ar      1 <0>        -0.0530
     21 C19         0.4804   -0.7261   -4.0696 C.ar      1 <0>        -0.1353
     22 C20         1.0338   -1.9668   -4.3578 C.ar      1 <0>         0.1139
     23 C21         0.7270   -3.0681   -3.5694 C.ar      1 <0>        -0.1992
     24 C22        -0.1238   -2.9321   -2.4933 C.ar      1 <0>        -0.0714
     25 O3          1.8773   -2.1036   -5.4141 O.3       1 <0>        -0.3280
     26 C23         2.4107   -3.4074   -5.6538 C.3       1 <0>         0.0272
     27 C24         3.3318   -3.3651   -6.8748 C.3       1 <0>         0.0036
     28 N1          4.4950   -2.5173   -6.5815 N.4       1 <0>        -0.3958
     29 C25         5.3601   -3.1685   -5.5648 C.3       1 <0>        -0.0103
     30 C26         6.7358   -2.4898   -5.7828 C.3       1 <0>        -0.1448
     31 C27         6.8004   -2.3248   -7.3186 C.3       1 <0>        -0.1449
     32 C28         5.3349   -2.3680   -7.7897 C.3       1 <0>        -0.0088
     33 O4          3.5464    2.1172   -0.0209 O.3       1 <0>        -0.5021
     34 H1         -0.9588    1.9233    0.0260 H         1 <0>         0.1297
     35 H2          1.1548    3.1775    0.0077 H         1 <0>         0.1322
     36 H3          3.3505   -0.4917   -0.0329 H         1 <0>         0.1262
     37 H4          1.2465   -1.7618   -0.0197 H         1 <0>         0.1233
     38 H5         -2.1196   -4.1491   -1.6077 H         1 <0>         0.1310
     39 H6         -4.3148   -5.2580   -1.5733 H         1 <0>         0.1353
     40 H7         -6.1819   -1.5810   -0.4408 H         1 <0>         0.1409
     41 H8         -3.1449    1.2086    0.8642 H         1 <0>         0.1039
     42 H9         -4.1808   -0.0157    1.6243 H         1 <0>         0.0648
     43 H10        -2.4980   -1.6941    1.4718 H         1 <0>         0.0838
     44 H11        -1.6570   -0.2350    2.0381 H         1 <0>         0.0940
     45 H12        -6.8226   -4.4900   -0.1326 H         1 <0>         0.3969
     46 H13        -0.8067    0.3815   -2.7759 H         1 <0>         0.1338
     47 H14         0.7210    0.1279   -4.6852 H         1 <0>         0.1332
     48 H15         1.1589   -4.0314   -3.7971 H         1 <0>         0.1280
     49 H16        -0.3584   -3.7880   -1.8780 H         1 <0>         0.1307
     50 H17         2.9777   -3.7339   -4.7821 H         1 <0>         0.0848
     51 H18         1.5943   -4.1056   -5.8386 H         1 <0>         0.1081
     52 H19         3.6683   -4.3745   -7.1112 H         1 <0>         0.1484
     53 H20         2.7883   -2.9547   -7.7258 H         1 <0>         0.1413
     54 H21         4.9884   -2.9703   -4.5595 H         1 <0>         0.1330
     55 H22         5.4271   -4.2411   -5.7468 H         1 <0>         0.1347
     56 H23         6.7695   -1.5188   -5.2888 H         1 <0>         0.0986
     57 H24         7.5428   -3.1317   -5.4296 H         1 <0>         0.1172
     58 H25         7.2529   -1.3676   -7.5775 H         1 <0>         0.1057
     59 H26         7.3652   -3.1439   -7.7637 H         1 <0>         0.1044
     60 H27         5.1835   -3.2184   -8.4545 H         1 <0>         0.1314
     61 H28         5.0830   -1.4411   -8.3049 H         1 <0>         0.1330
     62 H29         3.8924    2.3147    0.8602 H         1 <0>         0.3946
     63 H30         4.1925   -1.6121   -6.2540 H         1 <0>         0.4339
@<TRIPOS>BOND
     1    1    6 ar
     2    1    2 ar
     3    1   34 1
     4    2    3 ar
     5    2   35 1
     6    3    4 ar
     7    3   33 1
     8    4    5 ar
     9    4   36 1
    10    5    6 ar
    11    5   37 1
    12    6    7 1
    13    7   17 1
    14    7    8 2
    15    8    9 1
    16    8   19 1
    17    9   14 ar
    18    9   10 ar
    19   10   11 ar
    20   10   38 1
    21   11   12 ar
    22   11   39 1
    23   12   13 ar
    24   12   18 1
    25   13   14 ar
    26   13   40 1
    27   14   15 1
    28   15   16 1
    29   16   17 1
    30   16   41 1
    31   16   42 1
    32   17   43 1
    33   17   44 1
    34   18   45 1
    35   19   24 ar
    36   19   20 ar
    37   20   21 ar
    38   20   46 1
    39   21   22 ar
    40   21   47 1
    41   22   23 ar
    42   22   25 1
    43   23   24 ar
    44   23   48 1
    45   24   49 1
    46   25   26 1
    47   26   27 1
    48   26   50 1
    49   26   51 1
    50   27   28 1
    51   27   52 1
    52   27   53 1
    53   28   32 1
    54   28   29 1
    55   28   63 1
    56   29   30 1
    57   29   54 1
    58   29   55 1
    59   30   31 1
    60   30   56 1
    61   30   57 1
    62   31   32 1
    63   31   58 1
    64   31   59 1
    65   32   60 1
    66   32   61 1
    67   33   62 1
