@<TRIPOS>MOLECULE
CHEMBL470993
   59    63     0     0     0
SMALL
USER_CHARGES

@<TRIPOS>ATOM
      1 C1         -0.0166    1.3766    0.0096 C.ar      1 <0>        -0.1252
      2 C2          1.1689    2.0911    0.0021 C.ar      1 <0>        -0.0968
      3 C3          2.3849    1.4321   -0.0131 C.ar      1 <0>        -0.1293
      4 C4          2.4197    0.0494   -0.0208 C.ar      1 <0>         0.1129
      5 C5          1.2209   -0.6765   -0.0130 C.ar      1 <0>        -0.0752
      6 C6          0.0021   -0.0041    0.0020 C.ar      1 <0>        -0.0949
      7 C7          1.2783   -2.1532   -0.0199 C.2       1 <0>        -0.0355
      8 C8          2.1031   -2.7887    0.8608 C.2       1 <0>        -0.0494
      9 C9          2.8809   -1.9697    1.8595 C.3       1 <0>        -0.1225
     10 C10         4.0250   -1.2291    1.1768 C.3       1 <0>         0.0732
     11 O1          3.6011   -0.6197   -0.0353 O.3       1 <0>        -0.3258
     12 C11         2.2317   -4.2530    0.8370 C.ar      1 <0>        -0.0533
     13 C12         1.1310   -5.0597    1.1465 C.ar      1 <0>        -0.0829
     14 C13         1.2571   -6.4314    1.1222 C.ar      1 <0>        -0.1448
     15 C14         2.4740   -7.0139    0.7912 C.ar      1 <0>         0.1081
     16 C15         3.5700   -6.2178    0.4830 C.ar      1 <0>        -0.1406
     17 C16         3.4537   -4.8452    0.4991 C.ar      1 <0>        -0.0868
     18 O2          2.5929   -8.3672    0.7692 O.3       1 <0>        -0.4975
     19 C17         0.4521   -2.9314   -0.9690 C.ar      1 <0>        -0.0479
     20 C18         1.0629   -3.7029   -1.9590 C.ar      1 <0>        -0.0542
     21 C19         0.2897   -4.4269   -2.8411 C.ar      1 <0>        -0.1371
     22 C20        -1.0953   -4.3896   -2.7457 C.ar      1 <0>         0.1125
     23 C21        -1.7067   -3.6229   -1.7623 C.ar      1 <0>        -0.1987
     24 C22        -0.9402   -2.9006   -0.8729 C.ar      1 <0>        -0.0706
     25 O3         -1.8540   -5.1046   -3.6169 O.3       1 <0>        -0.3290
     26 C23        -3.2722   -5.0210   -3.4622 C.3       1 <0>         0.0294
     27 C24        -3.9530   -5.8861   -4.5247 C.3       1 <0>         0.0007
     28 N1         -3.6195   -7.2980   -4.2939 N.4       1 <0>        -0.4133
     29 C25        -4.5281   -7.9676   -3.3447 C.3       1 <0>        -0.0049
     30 C26        -4.4422   -9.2182   -4.2308 C.3       1 <0>        -0.1600
     31 C27        -4.1362   -8.2011   -5.3391 C.3       1 <0>         0.0003
     32 H1         -0.9605    1.9013    0.0260 H         1 <0>         0.1285
     33 H2          1.1443    3.1708    0.0079 H         1 <0>         0.1316
     34 H3          3.3058    1.9963   -0.0187 H         1 <0>         0.1343
     35 H4         -0.9242   -0.5594    0.0077 H         1 <0>         0.1252
     36 H5          2.2136   -1.2459    2.3274 H         1 <0>         0.0838
     37 H6          3.2874   -2.6297    2.6259 H         1 <0>         0.0935
     38 H7          4.4027   -0.4592    1.8495 H         1 <0>         0.0645
     39 H8          4.8266   -1.9349    0.9592 H         1 <0>         0.1022
     40 H9          0.1846   -4.6079    1.4043 H         1 <0>         0.1232
     41 H10         0.4083   -7.0550    1.3613 H         1 <0>         0.1264
     42 H11         4.5138   -6.6759    0.2267 H         1 <0>         0.1325
     43 H12         4.3052   -4.2272    0.2550 H         1 <0>         0.1299
     44 H13         2.3924   -8.7657   -0.0888 H         1 <0>         0.3892
     45 H14         2.1399   -3.7321   -2.0341 H         1 <0>         0.1339
     46 H15         0.7615   -5.0237   -3.6076 H         1 <0>         0.1325
     47 H16        -2.7840   -3.5961   -1.6915 H         1 <0>         0.1277
     48 H17        -1.4163   -2.3082   -0.1056 H         1 <0>         0.1309
     49 H18        -3.5511   -5.3769   -2.4704 H         1 <0>         0.0839
     50 H19        -3.5899   -3.9849   -3.5790 H         1 <0>         0.1068
     51 H20        -5.0332   -5.7533   -4.4639 H         1 <0>         0.1483
     52 H21        -3.6054   -5.5876   -5.5137 H         1 <0>         0.1400
     53 H22        -4.0954   -8.1068   -2.3540 H         1 <0>         0.1346
     54 H23        -5.5242   -7.5261   -3.3120 H         1 <0>         0.1510
     55 H24        -3.6100   -9.8797   -3.9898 H         1 <0>         0.1234
     56 H25        -5.3896   -9.7427   -4.3555 H         1 <0>         0.1308
     57 H26        -5.0276   -7.8219   -5.8387 H         1 <0>         0.1512
     58 H27        -3.3713   -8.5382   -6.0387 H         1 <0>         0.1370
     59 H28        -2.6428   -7.4425   -4.0857 H         1 <0>         0.4423
@<TRIPOS>BOND
     1    1    6 ar
     2    1    2 ar
     3    1   32 1
     4    2    3 ar
     5    2   33 1
     6    3    4 ar
     7    3   34 1
     8    4   11 1
     9    4    5 ar
    10    5    6 ar
    11    5    7 1
    12    6   35 1
    13    7    8 2
    14    7   19 1
    15    8    9 1
    16    8   12 1
    17    9   10 1
    18    9   36 1
    19    9   37 1
    20   10   11 1
    21   10   38 1
    22   10   39 1
    23   12   17 ar
    24   12   13 ar
    25   13   14 ar
    26   13   40 1
    27   14   15 ar
    28   14   41 1
    29   15   16 ar
    30   15   18 1
    31   16   17 ar
    32   16   42 1
    33   17   43 1
    34   18   44 1
    35   19   24 ar
    36   19   20 ar
    37   20   21 ar
    38   20   45 1
    39   21   22 ar
    40   21   46 1
    41   22   23 ar
    42   22   25 1
    43   23   24 ar
    44   23   47 1
    45   24   48 1
    46   25   26 1
    47   26   27 1
    48   26   49 1
    49   26   50 1
    50   27   28 1
    51   27   51 1
    52   27   52 1
    53   28   31 1
    54   28   29 1
    55   28   59 1
    56   29   30 1
    57   29   53 1
    58   29   54 1
    59   30   31 1
    60   30   55 1
    61   30   56 1
    62   31   57 1
    63   31   58 1
