@<TRIPOS>MOLECULE
CHEMBL185383
   62    66     0     0     0
SMALL
USER_CHARGES

@<TRIPOS>ATOM
      1 C1          1.0223   -0.1775   -0.6114 C.ar      1 <0>        -0.0896
      2 C2          2.1335    0.6417   -0.6633 C.ar      1 <0>        -0.1412
      3 C3          2.0485    1.9529   -0.2182 C.ar      1 <0>         0.1134
      4 C4          0.8473    2.4381    0.2780 C.ar      1 <0>        -0.1433
      5 C5         -0.2610    1.6149    0.3278 C.ar      1 <0>        -0.0796
      6 C6         -0.1738    0.3085   -0.1164 C.ar      1 <0>        -0.0870
      7 C7         -1.3845   -0.5872   -0.0613 C.3       1 <0>        -0.0616
      8 H1         -2.2836    0.0117    0.0833 H         1 <0>         0.1391
      9 C8         -1.2372   -1.5986    1.0877 C.3       1 <0>         0.1559
     10 H2         -2.0526   -2.3207    1.0446 H         1 <0>         0.0930
     11 O1          0.0035   -2.2750    0.9537 O.3       1 <0>        -0.3033
     12 C9          0.3113   -2.9970   -0.1492 C.ar      1 <0>         0.1264
     13 C10         1.2666   -4.0020   -0.0161 C.ar      1 <0>        -0.1163
     14 C11         1.6399   -4.7659   -1.1025 C.ar      1 <0>        -0.1071
     15 C12         1.0661   -4.5406   -2.3452 C.ar      1 <0>         0.0921
     16 C13         0.1103   -3.5479   -2.4884 C.ar      1 <0>        -0.0900
     17 C14        -0.2709   -2.7834   -1.3936 C.ar      1 <0>        -0.1473
     18 S1         -1.5182   -1.5464   -1.6029 S.3       1 <0>        -0.0924
     19 O2          1.4400   -5.2894   -3.4168 O.3       1 <0>        -0.4926
     20 C15        -1.2770   -0.8717    2.4072 C.ar      1 <0>        -0.1281
     21 C16        -0.1477   -0.2236    2.8724 C.ar      1 <0>        -0.0359
     22 C17        -0.1814    0.4431    4.0819 C.ar      1 <0>        -0.1526
     23 C18        -1.3498    0.4623    4.8297 C.ar      1 <0>         0.1455
     24 C19        -2.4817   -0.1884    4.3605 C.ar      1 <0>        -0.2132
     25 C20        -2.4443   -0.8493    3.1479 C.ar      1 <0>        -0.0585
     26 O3         -1.3854    1.1171    6.0200 O.3       1 <0>        -0.2954
     27 C21        -2.6220    1.0951    6.7358 C.3       1 <0>         0.0612
     28 C22        -2.4698    1.8785    8.0411 C.3       1 <0>         0.0597
     29 N1         -2.1866    3.2874    7.7364 N.3       1 <0>        -0.5524
     30 C23        -1.5390    3.9499    8.8709 C.3       1 <0>         0.0656
     31 C24        -0.8677    5.2457    8.4034 C.3       1 <0>        -0.5957
     32 S2         -2.1510    6.3622    7.7593 S.o2      1 <0>         2.4095
     33 O4         -1.5189    7.4085    7.0348 O.2       1 <0>        -0.9389
     34 O5         -3.0392    6.6902    8.8189 O.2       1 <0>        -0.9383
     35 C25        -3.0208    5.2842    6.5806 C.3       1 <0>        -0.5964
     36 C26        -3.3982    3.9832    7.2969 C.3       1 <0>         0.0604
     37 O6          3.1403    2.7606   -0.2678 O.3       1 <0>        -0.4990
     38 H3          1.0867   -1.1970   -0.9619 H         1 <0>         0.1303
     39 H4          3.0676    0.2615   -1.0497 H         1 <0>         0.1290
     40 H5          0.7787    3.4584    0.6254 H         1 <0>         0.1310
     41 H6         -1.1964    1.9922    0.7140 H         1 <0>         0.1260
     42 H7          1.7199   -4.1846    0.9471 H         1 <0>         0.1412
     43 H8          2.3818   -5.5420   -0.9851 H         1 <0>         0.1407
     44 H9         -0.3391   -3.3681   -3.4538 H         1 <0>         0.1385
     45 H10         0.9131   -6.0909   -3.5396 H         1 <0>         0.3918
     46 H11         0.7616   -0.2388    2.2899 H         1 <0>         0.1316
     47 H12         0.7011    0.9486    4.4452 H         1 <0>         0.1326
     48 H13        -3.3924   -0.1749    4.9408 H         1 <0>         0.1299
     49 H14        -3.3264   -1.3523    2.7801 H         1 <0>         0.1273
     50 H15        -3.4025    1.5515    6.1270 H         1 <0>         0.0652
     51 H16        -2.8933    0.0636    6.9607 H         1 <0>         0.0712
     52 H17        -3.3932    1.8097    8.6161 H         1 <0>         0.0702
     53 H18        -1.6479    1.4602    8.6222 H         1 <0>         0.0950
     54 H19        -2.2865    4.1825    9.6293 H         1 <0>         0.0610
     55 H20        -0.7870    3.2858    9.2970 H         1 <0>         0.1020
     56 H21        -0.3593    5.7184    9.2437 H         1 <0>         0.1401
     57 H22        -0.1483    5.0218    7.6157 H         1 <0>         0.1441
     58 H23        -3.9234    5.7822    6.2264 H         1 <0>         0.1393
     59 H24        -2.3673    5.0615    5.7371 H         1 <0>         0.1433
     60 H25        -3.9562    3.3425    6.6140 H         1 <0>         0.0979
     61 H26        -4.0180    4.2135    8.1634 H         1 <0>         0.0622
     62 H27         3.2265    3.2551   -1.0943 H         1 <0>         0.3924
@<TRIPOS>BOND
     1    1    6 ar
     2    1    2 ar
     3    1   38 1
     4    2    3 ar
     5    2   39 1
     6    3    4 ar
     7    3   37 1
     8    4    5 ar
     9    4   40 1
    10    5    6 ar
    11    5   41 1
    12    6    7 1
    13    7    8 1
    14    7   18 1
    15    7    9 1
    16    9   10 1
    17    9   11 1
    18    9   20 1
    19   11   12 1
    20   12   17 ar
    21   12   13 ar
    22   13   14 ar
    23   13   42 1
    24   14   15 ar
    25   14   43 1
    26   15   16 ar
    27   15   19 1
    28   16   17 ar
    29   16   44 1
    30   17   18 1
    31   19   45 1
    32   20   25 ar
    33   20   21 ar
    34   21   22 ar
    35   21   46 1
    36   22   23 ar
    37   22   47 1
    38   23   24 ar
    39   23   26 1
    40   24   25 ar
    41   24   48 1
    42   25   49 1
    43   26   27 1
    44   27   28 1
    45   27   50 1
    46   27   51 1
    47   28   29 1
    48   28   52 1
    49   28   53 1
    50   29   36 1
    51   29   30 1
    52   30   31 1
    53   30   54 1
    54   30   55 1
    55   31   32 1
    56   31   56 1
    57   31   57 1
    58   32   33 2
    59   32   34 2
    60   32   35 1
    61   35   36 1
    62   35   58 1
    63   35   59 1
    64   36   60 1
    65   36   61 1
    66   37   62 1
