@<TRIPOS>MOLECULE
CHEMBL241484
   85    89     0     0     0
SMALL
USER_CHARGES

@<TRIPOS>ATOM
      1 C1         -0.0187    1.5258    0.0104 C.3       1 <0>        -0.1656
      2 C2          0.0021   -0.0041    0.0020 C.3       1 <0>         0.1424
      3 H1          0.5123   -0.3556   -0.8948 H         1 <0>         0.0890
      4 C3         -1.4333   -0.5336    0.0129 C.3       1 <0>        -0.1223
      5 C4         -1.4157   -2.0577   -0.1212 C.3       1 <0>        -0.0778
      6 C5         -2.8295   -2.5793   -0.1105 C.ar      1 <0>        -0.0931
      7 C6         -3.4314   -2.9172    1.0875 C.ar      1 <0>        -0.1008
      8 C7         -4.7271   -3.3960    1.1000 C.ar      1 <0>        -0.1428
      9 C8         -5.4247   -3.5373   -0.0909 C.ar      1 <0>         0.1016
     10 C9         -4.8186   -3.1971   -1.2916 C.ar      1 <0>        -0.1424
     11 C10        -3.5245   -2.7138   -1.2982 C.ar      1 <0>        -0.1006
     12 O1         -6.6993   -4.0085   -0.0813 O.3       1 <0>        -0.5006
     13 N1          0.7106   -0.4894    1.1889 N.am      1 <0>        -0.7289
     14 C11         2.0538   -0.5998    1.1737 C.2       1 <0>         0.5130
     15 O2          2.6758   -0.2974    0.1774 O.2       1 <0>        -0.5240
     16 C12         2.7826   -1.0990    2.3946 C.3       1 <0>        -0.0710
     17 C13         4.2638   -1.1281    2.1185 C.2       1 <0>        -0.1245
     18 C14         5.0231   -2.2458    1.5589 C.ar      1 <0>        -0.1156
     19 C15         4.6777   -3.5323    1.1337 C.ar      1 <0>        -0.0263
     20 C16         5.6407   -4.3678    0.6453 C.ar      1 <0>        -0.2239
     21 C17         6.9668   -3.9482    0.5671 C.ar      1 <0>         0.1426
     22 C18         7.3286   -2.6804    0.9828 C.ar      1 <0>        -0.1656
     23 C19         6.3613   -1.8152    1.4826 C.ar      1 <0>         0.1447
     24 N2          6.4078   -0.5252    1.9634 N.pl3     1 <0>        -0.5843
     25 H2          7.2086    0.0186    2.0256 H         1 <0>         0.4183
     26 C20         5.1451   -0.1211    2.3361 C.2       1 <0>         0.1361
     27 C21         4.8035    1.2059    2.8920 C.ar      1 <0>        -0.0420
     28 C22         3.6790    1.8910    2.4298 C.ar      1 <0>        -0.0941
     29 C23         3.3659    3.1288    2.9526 C.ar      1 <0>        -0.1168
     30 C24         4.1640    3.6909    3.9331 C.ar      1 <0>        -0.1073
     31 C25         5.2802    3.0169    4.3957 C.ar      1 <0>        -0.1171
     32 C26         5.6011    1.7760    3.8853 C.ar      1 <0>        -0.1056
     33 O3          7.9130   -4.7928    0.0784 O.3       1 <0>        -0.3151
     34 C27         7.4750   -6.0890   -0.3339 C.3       1 <0>         0.0610
     35 C28         8.6710   -6.8909   -0.8512 C.3       1 <0>        -0.1180
     36 C29         8.2021   -8.2787   -1.2926 C.3       1 <0>        -0.1463
     37 C30         9.3981   -9.0806   -1.8099 C.3       1 <0>        -0.0086
     38 N3          8.9478  -10.4131   -2.2337 N.4       1 <0>        -0.3831
     39 C31         8.4484  -11.1527   -1.0684 C.3       1 <0>        -0.0127
     40 C32         7.9034  -12.5105   -1.5166 C.3       1 <0>        -0.1461
     41 C33         9.0252  -13.3086   -2.1873 C.3       1 <0>        -0.1397
     42 C34         9.5887  -12.4950   -3.3559 C.3       1 <0>        -0.1466
     43 C35        10.0713  -11.1378   -2.8396 C.3       1 <0>        -0.0067
     44 H3          1.0039    1.9031    0.0027 H         1 <0>         0.0608
     45 H4         -0.5459    1.8868   -0.8726 H         1 <0>         0.0666
     46 H5         -0.5289    1.8773    0.9072 H         1 <0>         0.0583
     47 H6         -1.9156   -0.2570    0.9504 H         1 <0>         0.0720
     48 H7         -1.9862   -0.1019   -0.8214 H         1 <0>         0.0818
     49 H8         -0.9334   -2.3344   -1.0587 H         1 <0>         0.0732
     50 H9         -0.8628   -2.4894    0.7131 H         1 <0>         0.0731
     51 H10        -2.8879   -2.8071    2.0143 H         1 <0>         0.1254
     52 H11        -5.1966   -3.6605    2.0359 H         1 <0>         0.1287
     53 H12        -5.3596   -3.3061   -2.2200 H         1 <0>         0.1288
     54 H13        -3.0538   -2.4447   -2.2322 H         1 <0>         0.1260
     55 H14        -7.3727   -3.3195    0.0019 H         1 <0>         0.3925
     56 H15         0.2131   -0.7312    1.9857 H         1 <0>         0.3996
     57 H16         2.5826   -0.4337    3.2345 H         1 <0>         0.1022
     58 H17         2.4385   -2.1044    2.6374 H         1 <0>         0.1014
     59 H18         3.6517   -3.8644    1.1917 H         1 <0>         0.1244
     60 H19         5.3725   -5.3613    0.3176 H         1 <0>         0.1246
     61 H20         8.3590   -2.3629    0.9195 H         1 <0>         0.1291
     62 H21         3.0554    1.4534    1.6643 H         1 <0>         0.1306
     63 H22         2.4961    3.6602    2.5956 H         1 <0>         0.1272
     64 H23         3.9148    4.6603    4.3388 H         1 <0>         0.1269
     65 H24         5.8993    3.4613    5.1609 H         1 <0>         0.1278
     66 H25         6.4702    1.2489    4.2504 H         1 <0>         0.1220
     67 H26         7.0287   -6.6085    0.5140 H         1 <0>         0.0649
     68 H27         6.7352   -5.9870   -1.1279 H         1 <0>         0.0652
     69 H28         9.1174   -6.3714   -1.6991 H         1 <0>         0.0864
     70 H29         9.4108   -6.9928   -0.0572 H         1 <0>         0.0859
     71 H30         7.7557   -8.7981   -0.4446 H         1 <0>         0.0906
     72 H31         7.4623   -8.1767   -2.0866 H         1 <0>         0.0909
     73 H32         9.8444   -8.5611   -2.6578 H         1 <0>         0.1334
     74 H33        10.1379   -9.1825   -1.0159 H         1 <0>         0.1316
     75 H34         9.2619  -11.3045   -0.3590 H         1 <0>         0.1287
     76 H35         7.6523  -10.5820   -0.5902 H         1 <0>         0.1311
     77 H36         7.5347  -13.0589   -0.6497 H         1 <0>         0.1118
     78 H37         7.0895  -12.3599   -2.2259 H         1 <0>         0.0874
     79 H38         9.8167  -13.5035   -1.4637 H         1 <0>         0.0817
     80 H39         8.6285  -14.2534   -2.5588 H         1 <0>         0.0942
     81 H40        10.4247  -13.0322   -3.8038 H         1 <0>         0.1122
     82 H41         8.8099  -12.3440   -4.1034 H         1 <0>         0.0875
     83 H42        10.4733  -10.5560   -3.6690 H         1 <0>         0.1302
     84 H43        10.8502  -11.2898   -2.0924 H         1 <0>         0.1283
     85 H44         8.2064  -10.3167   -2.9113 H         1 <0>         0.4223
@<TRIPOS>BOND
     1    1    2 1
     2    1   44 1
     3    1   45 1
     4    1   46 1
     5    2    3 1
     6    2    4 1
     7    2   13 1
     8    4    5 1
     9    4   47 1
    10    4   48 1
    11    5    6 1
    12    5   49 1
    13    5   50 1
    14    6   11 ar
    15    6    7 ar
    16    7    8 ar
    17    7   51 1
    18    8    9 ar
    19    8   52 1
    20    9   10 ar
    21    9   12 1
    22   10   11 ar
    23   10   53 1
    24   11   54 1
    25   12   55 1
    26   13   14 am
    27   13   56 1
    28   14   15 2
    29   14   16 1
    30   16   17 1
    31   16   57 1
    32   16   58 1
    33   17   26 2
    34   17   18 1
    35   18   23 ar
    36   18   19 ar
    37   19   20 ar
    38   19   59 1
    39   20   21 ar
    40   20   60 1
    41   21   22 ar
    42   21   33 1
    43   22   23 ar
    44   22   61 1
    45   23   24 1
    46   24   25 1
    47   24   26 1
    48   26   27 1
    49   27   32 ar
    50   27   28 ar
    51   28   29 ar
    52   28   62 1
    53   29   30 ar
    54   29   63 1
    55   30   31 ar
    56   30   64 1
    57   31   32 ar
    58   31   65 1
    59   32   66 1
    60   33   34 1
    61   34   35 1
    62   34   67 1
    63   34   68 1
    64   35   36 1
    65   35   69 1
    66   35   70 1
    67   36   37 1
    68   36   71 1
    69   36   72 1
    70   37   38 1
    71   37   73 1
    72   37   74 1
    73   38   43 1
    74   38   39 1
    75   38   85 1
    76   39   40 1
    77   39   75 1
    78   39   76 1
    79   40   41 1
    80   40   77 1
    81   40   78 1
    82   41   42 1
    83   41   79 1
    84   41   80 1
    85   42   43 1
    86   42   81 1
    87   42   82 1
    88   43   83 1
    89   43   84 1
