@<TRIPOS>MOLECULE
CHEMBL185231
   70    75     0     0     0
SMALL
USER_CHARGES

@<TRIPOS>ATOM
      1 C1          1.1631   -0.6117   -0.4390 C.ar      1 <0>        -0.0873
      2 C2          2.3518    0.0921   -0.4484 C.ar      1 <0>        -0.1389
      3 C3          2.3800    1.4096   -0.0147 C.ar      1 <0>         0.1158
      4 C4          1.2137    2.0170    0.4273 C.ar      1 <0>        -0.1461
      5 C5          0.0275    1.3089    0.4346 C.ar      1 <0>        -0.0837
      6 C6          0.0021   -0.0041    0.0020 C.ar      1 <0>        -0.0899
      7 C7         -1.2934   -0.7740    0.0107 C.3       1 <0>        -0.0640
      8 H1         -2.1334   -0.0869    0.1120 H         1 <0>         0.1382
      9 C8         -1.2969   -1.7821    1.1721 C.3       1 <0>         0.1497
     10 H2         -2.1779   -2.4197    1.0986 H         1 <0>         0.0962
     11 O1         -0.1255   -2.5802    1.0967 O.3       1 <0>        -0.3049
     12 C9          0.1551   -3.3416    0.0132 C.ar      1 <0>         0.1211
     13 C10         0.9986   -4.4351    0.1946 C.ar      1 <0>        -0.1140
     14 C11         1.3394   -5.2447   -0.8692 C.ar      1 <0>        -0.1061
     15 C12         0.8443   -4.9772   -2.1372 C.ar      1 <0>         0.0985
     16 C13        -0.0005   -3.8960   -2.3286 C.ar      1 <0>        -0.0901
     17 C14        -0.3494   -3.0850   -1.2568 C.ar      1 <0>        -0.1477
     18 S1         -1.4568   -1.7323   -1.5285 S.3       1 <0>        -0.0842
     19 O2          1.1866   -5.7716   -3.1864 O.3       1 <0>        -0.4915
     20 C15        -1.3198   -1.0400    2.4835 C.ar      1 <0>        -0.1046
     21 C16        -0.1522   -0.5024    2.9927 C.ar      1 <0>        -0.0346
     22 C17        -0.1704    0.1779    4.1949 C.ar      1 <0>        -0.1417
     23 C18        -1.3617    0.3218    4.8912 C.ar      1 <0>         0.1246
     24 C19        -2.5320   -0.2182    4.3779 C.ar      1 <0>        -0.2035
     25 C20        -2.5094   -0.8931    3.1727 C.ar      1 <0>        -0.0589
     26 O3         -1.3822    0.9902    6.0743 O.3       1 <0>        -0.3261
     27 C21        -2.6441    1.0995    6.7359 C.3       1 <0>         0.0263
     28 C22        -2.4698    1.8785    8.0411 C.3       1 <0>        -0.0006
     29 N1         -2.0692    3.2589    7.7377 N.4       1 <0>        -0.3907
     30 C23        -3.1675    3.9522    7.0368 C.3       1 <0>        -0.0199
     31 C24        -3.5894    5.1504    7.9307 C.3       1 <0>        -0.0929
     32 H3         -3.8887    6.0194    7.3447 H         1 <0>         0.1270
     33 C25        -4.7213    4.6444    8.8273 C.3       1 <0>        -0.1232
     34 C26        -4.9353    5.5752   10.0174 C.3       1 <0>        -0.1256
     35 C27        -3.6550    5.5851   10.8609 C.3       1 <0>        -0.1258
     36 C28        -2.5329    6.1847   10.0141 C.3       1 <0>        -0.1128
     37 C29        -2.3029    5.4081    8.7370 C.3       1 <0>        -0.0981
     38 H4         -1.5838    5.9318    8.1071 H         1 <0>         0.1005
     39 C30        -1.7821    3.9837    8.9986 C.3       1 <0>        -0.0082
     40 O4          3.5482    2.1039   -0.0225 O.3       1 <0>        -0.4998
     41 H5          1.1398   -1.6359   -0.7807 H         1 <0>         0.1322
     42 H6          3.2585   -0.3831   -0.7926 H         1 <0>         0.1315
     43 H7          1.2331    3.0424    0.7657 H         1 <0>         0.1294
     44 H8         -0.8807    1.7813    0.7787 H         1 <0>         0.1235
     45 H9          1.3899   -4.6512    1.1778 H         1 <0>         0.1413
     46 H10         1.9942   -6.0894   -0.7144 H         1 <0>         0.1429
     47 H11        -0.3883   -3.6831   -3.3139 H         1 <0>         0.1405
     48 H12         0.5878   -6.5179   -3.3264 H         1 <0>         0.3946
     49 H13         0.7750   -0.6147    2.4504 H         1 <0>         0.1388
     50 H14         0.7420    0.5970    4.5927 H         1 <0>         0.1351
     51 H15        -3.4607   -0.1075    4.9180 H         1 <0>         0.1311
     52 H16        -3.4210   -1.3098    2.7705 H         1 <0>         0.1346
     53 H17        -3.3483    1.6246    6.0906 H         1 <0>         0.0863
     54 H18        -3.0265    0.1028    6.9560 H         1 <0>         0.1092
     55 H19        -3.4123    1.8857    8.5886 H         1 <0>         0.1476
     56 H20        -1.7003    1.4021    8.6486 H         1 <0>         0.1425
     57 H21        -2.8216    4.3138    6.0685 H         1 <0>         0.1322
     58 H22        -4.0099    3.2737    6.9019 H         1 <0>         0.1312
     59 H23        -5.6414    4.5900    8.2455 H         1 <0>         0.0800
     60 H24        -4.4705    3.6485    9.1925 H         1 <0>         0.0584
     61 H25        -5.1480    6.5832    9.6613 H         1 <0>         0.0742
     62 H26        -5.7690    5.2147   10.6199 H         1 <0>         0.0753
     63 H27        -3.8069    6.1919   11.7535 H         1 <0>         0.0796
     64 H28        -3.3953    4.5660   11.1477 H         1 <0>         0.0625
     65 H29        -2.7937    7.2105    9.7537 H         1 <0>         0.0840
     66 H30        -1.6120    6.1906   10.5972 H         1 <0>         0.0784
     67 H31        -2.3177    3.5281    9.8315 H         1 <0>         0.1341
     68 H32        -0.7101    3.9989    9.1949 H         1 <0>         0.1378
     69 H33         3.7178    2.5792   -0.8474 H         1 <0>         0.3955
     70 H34        -1.2461    3.2539    7.1540 H         1 <0>         0.4330
@<TRIPOS>BOND
     1    1    6 ar
     2    1    2 ar
     3    1   41 1
     4    2    3 ar
     5    2   42 1
     6    3    4 ar
     7    3   40 1
     8    4    5 ar
     9    4   43 1
    10    5    6 ar
    11    5   44 1
    12    6    7 1
    13    7    8 1
    14    7   18 1
    15    7    9 1
    16    9   10 1
    17    9   11 1
    18    9   20 1
    19   11   12 1
    20   12   17 ar
    21   12   13 ar
    22   13   14 ar
    23   13   45 1
    24   14   15 ar
    25   14   46 1
    26   15   16 ar
    27   15   19 1
    28   16   17 ar
    29   16   47 1
    30   17   18 1
    31   19   48 1
    32   20   25 ar
    33   20   21 ar
    34   21   22 ar
    35   21   49 1
    36   22   23 ar
    37   22   50 1
    38   23   24 ar
    39   23   26 1
    40   24   25 ar
    41   24   51 1
    42   25   52 1
    43   26   27 1
    44   27   28 1
    45   27   53 1
    46   27   54 1
    47   28   29 1
    48   28   55 1
    49   28   56 1
    50   29   39 1
    51   29   30 1
    52   29   70 1
    53   30   31 1
    54   30   57 1
    55   30   58 1
    56   31   32 1
    57   31   37 1
    58   31   33 1
    59   33   34 1
    60   33   59 1
    61   33   60 1
    62   34   35 1
    63   34   61 1
    64   34   62 1
    65   35   36 1
    66   35   63 1
    67   35   64 1
    68   36   37 1
    69   36   65 1
    70   36   66 1
    71   37   38 1
    72   37   39 1
    73   39   67 1
    74   39   68 1
    75   40   69 1
