@<TRIPOS>MOLECULE
CHEMBL231811
   30    32     0     0     0
SMALL
USER_CHARGES

@<TRIPOS>ATOM
      1 C1         -0.0168    1.3907    0.0097 C.ar      1 <0>        -0.0820
      2 C2          1.1686    2.0947    0.0022 C.ar      1 <0>        -0.1439
      3 C3          2.3804    1.4168   -0.0135 C.ar      1 <0>         0.1135
      4 C4          2.4029    0.0284   -0.0217 C.ar      1 <0>        -0.1416
      5 C5          1.2212   -0.6818   -0.0137 C.ar      1 <0>        -0.0828
      6 C6          0.0021   -0.0041    0.0020 C.ar      1 <0>        -0.0677
      7 C7         -1.2696   -0.7638    0.0106 C.ar      1 <0>         0.0185
      8 C8         -2.2618   -0.4582    0.9428 C.ar      1 <0>        -0.0921
      9 C9         -3.4424   -1.1732    0.9401 C.ar      1 <0>        -0.0810
     10 C10        -3.6662   -2.1937    0.0271 C.ar      1 <0>        -0.0235
     11 C11        -2.6712   -2.5332   -0.9410 C.ar      1 <0>        -0.0511
     12 C12        -1.4813   -1.7795   -0.9133 C.ar      1 <0>        -0.1118
     13 S1         -0.5184   -2.4697   -2.2342 S.3       1 <0>         0.0375
     14 C13        -1.6715   -3.7073   -2.7974 C.2       1 <0>        -0.1512
     15 C14        -2.7178   -3.5584   -1.9684 C.2       1 <0>        -0.1425
     16 C15        -4.9382   -2.9329    0.0562 C.2       1 <0>         0.1429
     17 N1         -5.1527   -3.8869   -0.7939 N.2       1 <0>        -0.3263
     18 O1         -6.3767   -4.5982   -0.7659 O.3       1 <0>        -0.4097
     19 O2          3.5467    2.1136   -0.0214 O.3       1 <0>        -0.4989
     20 H1         -0.9589    1.9185    0.0260 H         1 <0>         0.1320
     21 H2          1.1547    3.1746    0.0081 H         1 <0>         0.1333
     22 H3          3.3471   -0.4957   -0.0346 H         1 <0>         0.1332
     23 H4          1.2394   -1.7616   -0.0204 H         1 <0>         0.1296
     24 H5         -2.1068    0.3324    1.6621 H         1 <0>         0.1437
     25 H6         -4.2076   -0.9336    1.6637 H         1 <0>         0.1400
     26 H7         -1.5534   -4.4134   -3.6060 H         1 <0>         0.1911
     27 H8         -3.5902   -4.1864   -2.0730 H         1 <0>         0.1600
     28 H9         -5.6930   -2.6802    0.7862 H         1 <0>         0.1301
     29 H10        -6.4447   -5.2906   -1.4375 H         1 <0>         0.4074
     30 H11         3.8931    2.3106    0.8597 H         1 <0>         0.3932
@<TRIPOS>BOND
     1    1    6 ar
     2    1    2 ar
     3    1   20 1
     4    2    3 ar
     5    2   21 1
     6    3    4 ar
     7    3   19 1
     8    4    5 ar
     9    4   22 1
    10    5    6 ar
    11    5   23 1
    12    6    7 1
    13    7   12 ar
    14    7    8 ar
    15    8    9 ar
    16    8   24 1
    17    9   10 ar
    18    9   25 1
    19   10   11 ar
    20   10   16 1
    21   11   15 1
    22   11   12 ar
    23   12   13 1
    24   13   14 1
    25   14   15 2
    26   14   26 1
    27   15   27 1
    28   16   17 2
    29   16   28 1
    30   17   18 1
    31   18   29 1
    32   19   30 1
