@<TRIPOS>MOLECULE
CHEMBL190038
   33    35     0     0     0
SMALL
USER_CHARGES

@<TRIPOS>ATOM
      1 C1          1.4518   -0.7112    1.3296 C.3       1 <0>        -0.1397
      2 S1          0.2636   -0.0175    0.1474 S.3       1 <0>        -0.0876
      3 C2          1.0197   -0.2824   -1.4219 C.2       1 <0>        -0.0123
      4 C3          1.4778    0.7123   -2.2783 C.2       1 <0>        -0.1109
      5 C4          2.0220    0.1092   -3.4395 C.2       1 <0>         0.4383
      6 O1          2.5099    0.6923   -4.3893 O.2       1 <0>        -0.3947
      7 C5          1.8900   -1.3654   -3.2886 C.ar      1 <0>        -0.1351
      8 C6          1.2772   -1.5982   -2.0418 C.ar      1 <0>        -0.0977
      9 C7          1.0296   -2.9050   -1.6268 C.ar      1 <0>         0.1644
     10 C8          1.3933   -3.9732   -2.4469 C.ar      1 <0>        -0.1473
     11 C9          1.9974   -3.7393   -3.6667 C.ar      1 <0>         0.1340
     12 C10         2.2417   -2.4287   -4.0934 C.ar      1 <0>        -0.0812
     13 O2          2.3490   -4.7845   -4.4582 O.3       1 <0>        -0.4883
     14 O3          0.4374   -3.1377   -0.4292 O.3       1 <0>        -0.4846
     15 C11         1.4084    2.1677   -2.0189 C.ar      1 <0>        -0.0433
     16 C12         0.1701    2.8069   -1.9449 C.ar      1 <0>        -0.0704
     17 C13         0.1097    4.1634   -1.7025 C.ar      1 <0>        -0.1427
     18 C14         1.2784    4.8926   -1.5327 C.ar      1 <0>         0.1163
     19 C15         2.5119    4.2607   -1.6055 C.ar      1 <0>        -0.1431
     20 C16         2.5809    2.9035   -1.8419 C.ar      1 <0>        -0.0744
     21 O4          1.2146    6.2299   -1.2948 O.3       1 <0>        -0.4991
     22 H1          1.5282   -1.7880    1.1785 H         1 <0>         0.0945
     23 H2          2.4283   -0.2524    1.1749 H         1 <0>         0.0813
     24 H3          1.1127   -0.5101    2.3459 H         1 <0>         0.1106
     25 H4          1.2022   -4.9868   -2.1267 H         1 <0>         0.1505
     26 H5          2.7154   -2.2506   -5.0476 H         1 <0>         0.1462
     27 H6          1.6575   -5.0605   -5.0753 H         1 <0>         0.4000
     28 H7         -0.5279   -3.1778   -0.4690 H         1 <0>         0.4010
     29 H8         -0.7397    2.2403   -2.0776 H         1 <0>         0.1277
     30 H9         -0.8482    4.6588   -1.6450 H         1 <0>         0.1339
     31 H10         3.4190    4.8318   -1.4729 H         1 <0>         0.1335
     32 H11         3.5410    2.4119   -1.8943 H         1 <0>         0.1268
     33 H12         1.1672    6.4607   -0.3569 H         1 <0>         0.3931
@<TRIPOS>BOND
     1    1    2 1
     2    1   22 1
     3    1   23 1
     4    1   24 1
     5    2    3 1
     6    3    8 1
     7    3    4 2
     8    4    5 1
     9    4   15 1
    10    5    6 2
    11    5    7 1
    12    7   12 ar
    13    7    8 ar
    14    8    9 ar
    15    9   10 ar
    16    9   14 1
    17   10   11 ar
    18   10   25 1
    19   11   12 ar
    20   11   13 1
    21   12   26 1
    22   13   27 1
    23   14   28 1
    24   15   20 ar
    25   15   16 ar
    26   16   17 ar
    27   16   29 1
    28   17   18 ar
    29   17   30 1
    30   18   19 ar
    31   18   21 1
    32   19   20 ar
    33   19   31 1
    34   20   32 1
    35   21   33 1
