@<TRIPOS>MOLECULE
CHEMBL180873
   68    73     0     0     0
SMALL
USER_CHARGES

@<TRIPOS>ATOM
      1 C1          1.4663    0.9902   -0.4981 C.3       1 <0>        -0.1180
      2 C2          0.6823   -0.2851   -0.3248 C.ar      1 <0>        -0.0886
      3 C3         -0.0847   -0.7713   -1.3690 C.ar      1 <0>        -0.0951
      4 C4         -0.8070   -1.9414   -1.2183 C.ar      1 <0>        -0.1206
      5 C5         -0.7673   -2.6313   -0.0240 C.ar      1 <0>        -0.1046
      6 C6          0.0041   -2.1464    1.0330 C.ar      1 <0>        -0.1297
      7 C7          0.7352   -0.9681    0.8724 C.ar      1 <0>        -0.0641
      8 C8          0.0510   -2.8802    2.3156 C.2       1 <0>         0.5636
      9 O1          0.1648   -2.2704    3.3609 O.2       1 <0>        -0.5297
     10 N1         -0.0326   -4.2254    2.3259 N.am      1 <0>        -0.6078
     11 C9         -0.0441   -4.9837    1.0670 C.3       1 <0>         0.0731
     12 C10         1.0876   -6.0181    1.1077 C.3       1 <0>         0.1014
     13 N2          1.0069   -6.7528    2.3779 N.pl3     1 <0>        -0.6190
     14 C11         1.0184   -5.9945    3.6367 C.3       1 <0>         0.1031
     15 C12        -0.1077   -4.9605    3.5963 C.3       1 <0>         0.0962
     16 C13         0.9207   -8.1411    2.3884 C.ar      1 <0>         0.2567
     17 C14         1.0444   -8.8538    1.1990 C.ar      1 <0>        -0.2147
     18 C15         0.9600  -10.2274    1.2062 C.ar      1 <0>        -0.0038
     19 C16         0.7499  -10.9070    2.4096 C.ar      1 <0>        -0.2268
     20 C17         0.6261  -10.1884    3.6023 C.ar      1 <0>        -0.0076
     21 C18         0.7167   -8.8153    3.5893 C.ar      1 <0>        -0.2138
     22 C19         0.6584  -12.3803    2.4208 C.2       1 <0>         0.4653
     23 O2          0.6721  -12.9995    1.3718 O.2       1 <0>        -0.4476
     24 C20         0.5512  -13.0970    3.6918 C.2       1 <0>        -0.1537
     25 C21         1.7458  -13.4516    4.4622 C.ar      1 <0>        -0.0712
     26 C22         3.0982  -13.1899    4.1459 C.ar      1 <0>        -0.0571
     27 C23         4.1049  -13.5945    4.9825 C.ar      1 <0>        -0.1383
     28 C24         3.8295  -14.2732    6.1663 C.ar      1 <0>         0.1340
     29 C25         2.5131  -14.5438    6.5035 C.ar      1 <0>        -0.1021
     30 C26         1.4960  -14.1391    5.6646 C.ar      1 <0>        -0.1021
     31 S1         -0.2711  -14.2871    5.7295 S.3       1 <0>         0.0841
     32 C27        -0.6865  -13.4572    4.2086 C.2       1 <0>        -0.0541
     33 C28        -2.0228  -13.2131    3.6356 C.ar      1 <0>        -0.0408
     34 C29        -2.2819  -13.5333    2.2996 C.ar      1 <0>        -0.0695
     35 C30        -3.5319  -13.3034    1.7686 C.ar      1 <0>        -0.1401
     36 C31        -4.5343  -12.7537    2.5584 C.ar      1 <0>         0.1241
     37 C32        -4.2812  -12.4334    3.8866 C.ar      1 <0>        -0.1477
     38 C33        -3.0362  -12.6660    4.4281 C.ar      1 <0>        -0.0732
     39 O3         -5.7650  -12.5284    2.0305 O.3       1 <0>        -0.4975
     40 O4          4.8421  -14.6670    6.9832 O.3       1 <0>        -0.4910
     41 H1          2.4587    0.7570   -0.8839 H         1 <0>         0.0741
     42 H2          0.9477    1.6430   -1.2003 H         1 <0>         0.0705
     43 H3          1.5596    1.4930    0.4644 H         1 <0>         0.0700
     44 H4         -0.1197   -0.2347   -2.3056 H         1 <0>         0.1288
     45 H5         -1.4036   -2.3156   -2.0371 H         1 <0>         0.1315
     46 H6         -1.3323   -3.5443    0.0926 H         1 <0>         0.1350
     47 H7          1.3376   -0.5899    1.6851 H         1 <0>         0.1323
     48 H8         -1.0013   -5.4929    0.9555 H         1 <0>         0.0791
     49 H9          0.1114   -4.3041    0.2292 H         1 <0>         0.1159
     50 H10         0.9779   -6.7132    0.2753 H         1 <0>         0.1007
     51 H11         2.0498   -5.5105    1.0392 H         1 <0>         0.0728
     52 H12         0.8629   -6.6741    4.4746 H         1 <0>         0.1005
     53 H13         1.9756   -5.4852    3.7483 H         1 <0>         0.0730
     54 H14         0.0058   -4.2655    4.4283 H         1 <0>         0.1068
     55 H15        -1.0695   -5.4681    3.6689 H         1 <0>         0.0756
     56 H16         1.2063   -8.3282    0.2695 H         1 <0>         0.1302
     57 H17         1.0557  -10.7797    0.2831 H         1 <0>         0.1334
     58 H18         0.4633  -10.7106    4.5336 H         1 <0>         0.1257
     59 H19         0.6252   -8.2598    4.5110 H         1 <0>         0.1296
     60 H20         3.3410  -12.6651    3.2338 H         1 <0>         0.1295
     61 H21         5.1306  -13.3834    4.7186 H         1 <0>         0.1379
     62 H22         2.2847  -15.0698    7.4186 H         1 <0>         0.1406
     63 H23        -1.5032  -13.9599    1.6848 H         1 <0>         0.1375
     64 H24        -3.7330  -13.5505    0.7366 H         1 <0>         0.1363
     65 H25        -5.0631  -12.0056    4.4966 H         1 <0>         0.1361
     66 H26        -2.8418  -12.4215    5.4620 H         1 <0>         0.1334
     67 H27        -6.3972  -13.2430    2.1876 H         1 <0>         0.3951
     68 H28         5.0874  -14.0109    7.6499 H         1 <0>         0.3963
@<TRIPOS>BOND
     1    1    2 1
     2    1   41 1
     3    1   42 1
     4    1   43 1
     5    2    7 ar
     6    2    3 ar
     7    3    4 ar
     8    3   44 1
     9    4    5 ar
    10    4   45 1
    11    5    6 ar
    12    5   46 1
    13    6    7 ar
    14    6    8 1
    15    7   47 1
    16    8    9 2
    17    8   10 am
    18   10   15 1
    19   10   11 1
    20   11   12 1
    21   11   48 1
    22   11   49 1
    23   12   13 1
    24   12   50 1
    25   12   51 1
    26   13   14 1
    27   13   16 1
    28   14   15 1
    29   14   52 1
    30   14   53 1
    31   15   54 1
    32   15   55 1
    33   16   21 ar
    34   16   17 ar
    35   17   18 ar
    36   17   56 1
    37   18   19 ar
    38   18   57 1
    39   19   20 ar
    40   19   22 1
    41   20   21 ar
    42   20   58 1
    43   21   59 1
    44   22   23 2
    45   22   24 1
    46   24   32 2
    47   24   25 1
    48   25   30 ar
    49   25   26 ar
    50   26   27 ar
    51   26   60 1
    52   27   28 ar
    53   27   61 1
    54   28   29 ar
    55   28   40 1
    56   29   30 ar
    57   29   62 1
    58   30   31 1
    59   31   32 1
    60   32   33 1
    61   33   38 ar
    62   33   34 ar
    63   34   35 ar
    64   34   63 1
    65   35   36 ar
    66   35   64 1
    67   36   37 ar
    68   36   39 1
    69   37   38 ar
    70   37   65 1
    71   38   66 1
    72   39   67 1
    73   40   68 1
