@<TRIPOS>MOLECULE
CHEMBL59146
   67    71     0     0     0
SMALL
USER_CHARGES

@<TRIPOS>ATOM
      1 C1         -0.2359   -0.0257    1.7379 C.ar      1 <0>        -0.1151
      2 C2          0.2834    1.0695    1.0733 C.ar      1 <0>        -0.1125
      3 C3          1.4726    0.9559    0.3778 C.ar      1 <0>        -0.0991
      4 C4          2.1428   -0.2527    0.3474 C.ar      1 <0>        -0.0694
      5 C5          1.6240   -1.3477    1.0128 C.ar      1 <0>        -0.1002
      6 C6          0.4340   -1.2345    1.7071 C.ar      1 <0>        -0.1147
      7 C7          3.4388   -0.3768   -0.4116 C.3       1 <0>         0.1834
      8 C8          4.5746   -0.7372    0.5549 C.3       1 <0>        -0.1264
      9 C9          5.8886   -0.7880   -0.2242 C.3       1 <0>        -0.0831
     10 C10         5.7489   -1.6690   -1.4377 C.ar      1 <0>        -0.0932
     11 C11         6.8915   -2.1912   -2.0205 C.ar      1 <0>        -0.1135
     12 C12         6.7962   -3.0030   -3.1393 C.ar      1 <0>         0.0886
     13 C13         5.5530   -3.2951   -3.6816 C.ar      1 <0>        -0.1171
     14 C14         4.4124   -2.7768   -3.1031 C.ar      1 <0>        -0.1637
     15 C15         4.5078   -1.9646   -1.9788 C.ar      1 <0>         0.1514
     16 N1          3.3336   -1.4563   -1.4028 N.am      1 <0>        -0.5522
     17 C16         2.1295   -1.9503   -1.7527 C.2       1 <0>         0.5600
     18 O1          1.1180   -1.3269   -1.4938 O.2       1 <0>        -0.4740
     19 C17         2.0385   -3.2478   -2.4499 C.ar      1 <0>        -0.1708
     20 C18         2.9646   -4.2574   -2.1747 C.ar      1 <0>        -0.0130
     21 C19         2.8763   -5.4667   -2.8275 C.ar      1 <0>        -0.1600
     22 C20         1.8677   -5.6837   -3.7591 C.ar      1 <0>         0.1471
     23 C21         0.9449   -4.6818   -4.0359 C.ar      1 <0>        -0.2180
     24 C22         1.0226   -3.4720   -3.3829 C.ar      1 <0>        -0.0199
     25 O2          1.7841   -6.8768   -4.4003 O.3       1 <0>        -0.3241
     26 C23         0.7234   -7.0326   -5.3452 C.3       1 <0>         0.0230
     27 C24         0.7906   -8.4314   -5.9613 C.3       1 <0>        -0.0009
     28 N2          0.5735   -9.4387   -4.9143 N.4       1 <0>        -0.3843
     29 C25         0.7950  -10.7780   -5.4724 C.3       1 <0>        -0.0072
     30 C26         0.6495  -11.8259   -4.3669 C.3       1 <0>        -0.1466
     31 C27        -0.7610  -11.7442   -3.7761 C.3       1 <0>        -0.1392
     32 C28        -1.0078  -10.3222   -3.2641 C.3       1 <0>        -0.1455
     33 C29        -0.8009   -9.3301   -4.4105 C.3       1 <0>        -0.0135
     34 O3          7.9218   -3.5134   -3.7063 O.3       1 <0>        -0.4957
     35 H1         -1.1628    0.0642    2.2850 H         1 <0>         0.1207
     36 H2         -0.2402    2.0138    1.0970 H         1 <0>         0.1227
     37 H3          1.8780    1.8114   -0.1421 H         1 <0>         0.1196
     38 H4          2.1474   -2.2920    0.9887 H         1 <0>         0.1072
     39 H5          0.0284   -2.0900    2.2266 H         1 <0>         0.1177
     40 H6          3.6643    0.5643   -0.9132 H         1 <0>         0.0927
     41 H7          4.6427    0.0193    1.3367 H         1 <0>         0.0939
     42 H8          4.3777   -1.7112    1.0028 H         1 <0>         0.0759
     43 H9          6.1586    0.2196   -0.5404 H         1 <0>         0.0860
     44 H10         6.6735   -1.1847    0.4198 H         1 <0>         0.0891
     45 H11         7.8607   -1.9650   -1.6011 H         1 <0>         0.1365
     46 H12         5.4782   -3.9264   -4.5547 H         1 <0>         0.1307
     47 H13         3.4439   -3.0030   -3.5242 H         1 <0>         0.1535
     48 H14         3.7487   -4.0895   -1.4513 H         1 <0>         0.1431
     49 H15         3.5918   -6.2474   -2.6157 H         1 <0>         0.1406
     50 H16         0.1632   -4.8541   -4.7609 H         1 <0>         0.1356
     51 H17         0.3021   -2.6959   -3.5948 H         1 <0>         0.1423
     52 H18        -0.2343   -6.9033   -4.8410 H         1 <0>         0.0892
     53 H19         0.8242   -6.2841   -6.1311 H         1 <0>         0.1126
     54 H20         0.0193   -8.5294   -6.7253 H         1 <0>         0.1501
     55 H21         1.7709   -8.5826   -6.4133 H         1 <0>         0.1434
     56 H22         0.0607  -10.9713   -6.2545 H         1 <0>         0.1295
     57 H23         1.7981  -10.8336   -5.8954 H         1 <0>         0.1313
     58 H24         0.8126  -12.8198   -4.7837 H         1 <0>         0.1133
     59 H25         1.3836  -11.6337   -3.5844 H         1 <0>         0.0879
     60 H26        -1.4933  -11.9865   -4.5462 H         1 <0>         0.0823
     61 H27        -0.8517  -12.4499   -2.9503 H         1 <0>         0.0948
     62 H28        -2.0293  -10.2413   -2.8926 H         1 <0>         0.1125
     63 H29        -0.3081  -10.0988   -2.4586 H         1 <0>         0.0878
     64 H30        -0.9760   -8.3166   -4.0494 H         1 <0>         0.1274
     65 H31        -1.5011   -9.5542   -5.2152 H         1 <0>         0.1307
     66 H32         8.1874   -4.3720   -3.3493 H         1 <0>         0.3896
     67 H33         1.2216   -9.2805   -4.1573 H         1 <0>         0.4291
@<TRIPOS>BOND
     1    1    6 ar
     2    1    2 ar
     3    1   35 1
     4    2    3 ar
     5    2   36 1
     6    3    4 ar
     7    3   37 1
     8    4    5 ar
     9    4    7 1
    10    5    6 ar
    11    5   38 1
    12    6   39 1
    13    7   16 1
    14    7    8 1
    15    7   40 1
    16    8    9 1
    17    8   41 1
    18    8   42 1
    19    9   10 1
    20    9   43 1
    21    9   44 1
    22   10   15 ar
    23   10   11 ar
    24   11   12 ar
    25   11   45 1
    26   12   13 ar
    27   12   34 1
    28   13   14 ar
    29   13   46 1
    30   14   15 ar
    31   14   47 1
    32   15   16 1
    33   16   17 am
    34   17   18 2
    35   17   19 1
    36   19   24 ar
    37   19   20 ar
    38   20   21 ar
    39   20   48 1
    40   21   22 ar
    41   21   49 1
    42   22   23 ar
    43   22   25 1
    44   23   24 ar
    45   23   50 1
    46   24   51 1
    47   25   26 1
    48   26   27 1
    49   26   52 1
    50   26   53 1
    51   27   28 1
    52   27   54 1
    53   27   55 1
    54   28   33 1
    55   28   29 1
    56   28   67 1
    57   29   30 1
    58   29   56 1
    59   29   57 1
    60   30   31 1
    61   30   58 1
    62   30   59 1
    63   31   32 1
    64   31   60 1
    65   31   61 1
    66   32   33 1
    67   32   62 1
    68   32   63 1
    69   33   64 1
    70   33   65 1
    71   34   66 1
