@<TRIPOS>MOLECULE
CHEMBL603966
   58    62     0     0     0
SMALL
USER_CHARGES

@<TRIPOS>ATOM
      1 C1         -0.0187    1.5258    0.0104 C.3       1 <0>        -0.1378
      2 C2          0.0021   -0.0041    0.0020 C.3       1 <0>        -0.0438
      3 C3         -1.4064   -0.5323    0.1772 C.3       1 <0>        -0.1004
      4 C4         -1.9756    0.0797    1.4714 C.3       1 <0>        -0.1133
      5 C5         -1.0851   -0.2532    2.6598 C.3       1 <0>        -0.0424
      6 H1         -1.0806   -1.3360    2.7843 H         1 <0>         0.0767
      7 C6         -1.6005    0.3571    3.9311 C.ar      1 <0>        -0.0765
      8 C7         -2.9742    0.4710    4.0964 C.ar      1 <0>        -0.1030
      9 C8         -3.5002    1.0150    5.2487 C.ar      1 <0>        -0.1473
     10 C9         -2.6480    1.4512    6.2530 C.ar      1 <0>         0.1020
     11 C10        -1.2787    1.3413    6.0863 C.ar      1 <0>        -0.1480
     12 C11        -0.7495    0.7994    4.9225 C.ar      1 <0>        -0.0575
     13 C12         0.7502    0.7384    4.8002 C.3       1 <0>        -0.0822
     14 C13         1.1786   -0.1827    3.6588 C.3       1 <0>        -0.1136
     15 C14         0.3612    0.2021    2.4252 C.3       1 <0>        -0.0741
     16 H2          0.3879    1.2814    2.2748 H         1 <0>         0.0879
     17 C15         0.8604   -0.5199    1.1907 C.3       1 <0>        -0.0817
     18 H3          0.7388   -1.5961    1.3133 H         1 <0>         0.0787
     19 C16         2.2767   -0.1707    0.7204 C.3       1 <0>        -0.1115
     20 C17         2.2489   -0.5546   -0.7844 C.3       1 <0>        -0.1441
     21 C18         0.7638   -0.4984   -1.2221 C.3       1 <0>         0.2591
     22 C19         0.2945   -1.8392   -1.6079 C.1       1 <0>        -0.1969
     23 C20        -0.0798   -2.9086   -1.9155 C.1       1 <0>        -0.1046
     24 C21        -0.5363   -4.2130   -2.2908 C.ar      1 <0>        -0.0545
     25 C22        -1.5493   -4.8365   -1.5600 C.ar      1 <0>        -0.0406
     26 C23        -1.9865   -6.0918   -1.9235 C.ar      1 <0>        -0.1996
     27 C24        -1.4195   -6.7375   -3.0167 C.ar      1 <0>         0.2293
     28 C25        -0.4104   -6.1190   -3.7465 C.ar      1 <0>        -0.2000
     29 C26         0.0267   -4.8612   -3.3916 C.ar      1 <0>        -0.0421
     30 N1         -1.8636   -8.0089   -3.3817 N.pl3     1 <0>        -0.8737
     31 O1          0.6019    0.4156   -2.3086 O.3       1 <0>        -0.5405
     32 O2         -3.1559    1.9844    7.3952 O.3       1 <0>        -0.5004
     33 H4          1.0033    1.9032   -0.0250 H         1 <0>         0.0576
     34 H5         -0.5695    1.8864   -0.8582 H         1 <0>         0.0638
     35 H6         -0.5045    1.8775    0.9205 H         1 <0>         0.0640
     36 H7         -2.0207   -0.2365   -0.6732 H         1 <0>         0.0674
     37 H8         -1.3862   -1.6190    0.2597 H         1 <0>         0.0656
     38 H9         -2.0364    1.1623    1.3603 H         1 <0>         0.0713
     39 H10        -2.9745   -0.3191    1.6483 H         1 <0>         0.0657
     40 H11        -3.6371    0.1306    3.3147 H         1 <0>         0.1276
     41 H12        -4.5700    1.1016    5.3689 H         1 <0>         0.1271
     42 H13        -0.6155    1.6804    6.8684 H         1 <0>         0.1258
     43 H14         1.1338    1.7413    4.6125 H         1 <0>         0.0779
     44 H15         1.1695    0.3666    5.7351 H         1 <0>         0.0747
     45 H16         2.2408   -0.0469    3.4558 H         1 <0>         0.0726
     46 H17         0.9854   -1.2202    3.9313 H         1 <0>         0.0663
     47 H18         2.4720    0.8946    0.8429 H         1 <0>         0.0754
     48 H19         3.0180   -0.7638    1.2560 H         1 <0>         0.0704
     49 H20         2.8367    0.1577   -1.3632 H         1 <0>         0.0809
     50 H21         2.6412   -1.5624   -0.9207 H         1 <0>         0.0721
     51 H22        -1.9896   -4.3358   -0.7104 H         1 <0>         0.1256
     52 H23        -2.7701   -6.5747   -1.3585 H         1 <0>         0.1257
     53 H24         0.0284   -6.6231   -4.5949 H         1 <0>         0.1255
     54 H25         0.8074   -4.3794   -3.9616 H         1 <0>         0.1249
     55 H26        -2.5673   -8.4414   -2.8731 H         1 <0>         0.4004
     56 H27        -1.4688   -8.4602   -4.1441 H         1 <0>         0.4003
     57 H28         1.0650    0.1529   -3.1159 H         1 <0>         0.3781
     58 H29        -3.3231    1.3350    8.0920 H         1 <0>         0.3898
@<TRIPOS>BOND
     1    1    2 1
     2    1   33 1
     3    1   34 1
     4    1   35 1
     5    2   17 1
     6    2   21 1
     7    2    3 1
     8    3    4 1
     9    3   36 1
    10    3   37 1
    11    4    5 1
    12    4   38 1
    13    4   39 1
    14    5    6 1
    15    5   15 1
    16    5    7 1
    17    7   12 ar
    18    7    8 ar
    19    8    9 ar
    20    8   40 1
    21    9   10 ar
    22    9   41 1
    23   10   11 ar
    24   10   32 1
    25   11   12 ar
    26   11   42 1
    27   12   13 1
    28   13   14 1
    29   13   43 1
    30   13   44 1
    31   14   15 1
    32   14   45 1
    33   14   46 1
    34   15   16 1
    35   15   17 1
    36   17   18 1
    37   17   19 1
    38   19   20 1
    39   19   47 1
    40   19   48 1
    41   20   21 1
    42   20   49 1
    43   20   50 1
    44   21   22 1
    45   21   31 1
    46   22   23 3
    47   23   24 1
    48   24   29 ar
    49   24   25 ar
    50   25   26 ar
    51   25   51 1
    52   26   27 ar
    53   26   52 1
    54   27   28 ar
    55   27   30 1
    56   28   29 ar
    57   28   53 1
    58   29   54 1
    59   30   55 1
    60   30   56 1
    61   31   57 1
    62   32   58 1
