@<TRIPOS>MOLECULE
CHEMBL390021
   63    67     0     0     0
SMALL
USER_CHARGES

@<TRIPOS>ATOM
      1 C1         -0.1301    1.3207    0.7506 C.ar      1 <0>        -0.0850
      2 C2          1.0439    2.0452    0.7058 C.ar      1 <0>        -0.1095
      3 C3          2.2652    1.3837    0.5872 C.ar      1 <0>        -0.0219
      4 C4          2.2942   -0.0081    0.5143 C.ar      1 <0>        -0.1527
      5 C5          1.1129   -0.7240    0.5600 C.ar      1 <0>         0.1005
      6 C6         -0.0976   -0.0598    0.6781 C.ar      1 <0>        -0.1471
      7 F1          1.1383   -2.0729    0.4896 F         1 <0>        -0.1399
      8 C7          3.5287    2.1576    0.5382 C.ar      1 <0>        -0.0452
      9 C8          3.6495    3.2385   -0.3485 C.ar      1 <0>        -0.0926
     10 C9          4.7960    3.9638   -0.4131 C.ar      1 <0>        -0.0905
     11 C10         5.8860    3.6372    0.4150 C.ar      1 <0>        -0.0246
     12 C11         7.0798    4.3747    0.3633 C.ar      1 <0>        -0.1336
     13 C12         8.1211    4.0343    1.1797 C.ar      1 <0>         0.1215
     14 C13         8.0144    2.9596    2.0677 C.ar      1 <0>        -0.1307
     15 C14         6.8716    2.2254    2.1413 C.ar      1 <0>        -0.0843
     16 C15         5.7809    2.5484    1.3162 C.ar      1 <0>        -0.0655
     17 C16         4.5820    1.8111    1.3741 C.ar      1 <0>         0.0997
     18 O1          4.4595    0.7689    2.2344 O.3       1 <0>        -0.2418
     19 C17         4.8247   -0.4656    1.7977 C.ar      1 <0>         0.1088
     20 C18         5.3109   -0.6297    0.5087 C.ar      1 <0>        -0.1594
     21 C19         5.6819   -1.8840    0.0652 C.ar      1 <0>        -0.0987
     22 C20         5.5679   -2.9796    0.9082 C.ar      1 <0>         0.0818
     23 C21         5.0814   -2.8157    2.1968 C.ar      1 <0>        -0.1585
     24 C22         4.7166   -1.5605    2.6429 C.ar      1 <0>        -0.1066
     25 O2          5.9328   -4.2145    0.4712 O.3       1 <0>        -0.3267
     26 C23         5.7889   -5.2974    1.3924 C.3       1 <0>         0.0249
     27 C24         6.2459   -6.5971    0.7271 C.3       1 <0>        -0.0007
     28 N1          7.6777   -6.5081    0.4107 N.4       1 <0>        -0.3841
     29 C25         8.0801   -7.6874   -0.3650 C.3       1 <0>        -0.0071
     30 C26         9.5512   -7.5609   -0.7665 C.3       1 <0>        -0.1467
     31 C27        10.4124   -7.4602    0.4958 C.3       1 <0>        -0.1388
     32 C28         9.9351   -6.2706    1.3338 C.3       1 <0>        -0.1454
     33 C29         8.4497   -6.4449    1.6575 C.3       1 <0>        -0.0131
     34 O3          9.2754    4.7491    1.1277 O.3       1 <0>        -0.4982
     35 H1         -1.0759    1.8330    0.8470 H         1 <0>         0.1400
     36 H2          1.0164    3.1234    0.7623 H         1 <0>         0.1352
     37 H3          3.2376   -0.5257    0.4219 H         1 <0>         0.1402
     38 H4         -1.0188   -0.6223    0.7139 H         1 <0>         0.1386
     39 H5          2.8191    3.4971   -0.9888 H         1 <0>         0.1396
     40 H6          4.8714    4.7926   -1.1015 H         1 <0>         0.1414
     41 H7          7.1746    5.2068   -0.3187 H         1 <0>         0.1417
     42 H8          8.8507    2.7088    2.7035 H         1 <0>         0.1344
     43 H9          6.8027    1.3975    2.8314 H         1 <0>         0.1326
     44 H10         5.3990    0.2232   -0.1479 H         1 <0>         0.1412
     45 H11         6.0604   -2.0118   -0.9383 H         1 <0>         0.1384
     46 H12         4.9921   -3.6690    2.8528 H         1 <0>         0.1366
     47 H13         4.3424   -1.4322    3.6478 H         1 <0>         0.1428
     48 H14         6.3992   -5.1069    2.2752 H         1 <0>         0.0860
     49 H15         4.7432   -5.3878    1.6863 H         1 <0>         0.1096
     50 H16         6.0751   -7.4325    1.4061 H         1 <0>         0.1489
     51 H17         5.6800   -6.7537   -0.1912 H         1 <0>         0.1426
     52 H18         7.9450   -8.5836    0.2406 H         1 <0>         0.1291
     53 H19         7.4642   -7.7596   -1.2614 H         1 <0>         0.1310
     54 H20         9.8485   -8.4383   -1.3409 H         1 <0>         0.1129
     55 H21         9.6874   -6.6652   -1.3725 H         1 <0>         0.0879
     56 H22        10.3161   -8.3773    1.0769 H         1 <0>         0.0821
     57 H23        11.4552   -7.3131    0.2148 H         1 <0>         0.0945
     58 H24        10.5068   -6.2256    2.2608 H         1 <0>         0.1121
     59 H25        10.0792   -5.3480    0.7715 H         1 <0>         0.0878
     60 H26         8.1067   -5.5997    2.2543 H         1 <0>         0.1275
     61 H27         8.3068   -7.3675    2.2200 H         1 <0>         0.1301
     62 H28         9.3000    5.5013    1.7349 H         1 <0>         0.3975
     63 H29         7.8499   -5.6757   -0.1329 H         1 <0>         0.4295
@<TRIPOS>BOND
     1    1    6 ar
     2    1    2 ar
     3    1   35 1
     4    2    3 ar
     5    2   36 1
     6    3    4 ar
     7    3    8 1
     8    4    5 ar
     9    4   37 1
    10    5    6 ar
    11    5    7 1
    12    6   38 1
    13    8   17 ar
    14    8    9 ar
    15    9   10 ar
    16    9   39 1
    17   10   11 ar
    18   10   40 1
    19   11   16 ar
    20   11   12 ar
    21   12   13 ar
    22   12   41 1
    23   13   14 ar
    24   13   34 1
    25   14   15 ar
    26   14   42 1
    27   15   16 ar
    28   15   43 1
    29   16   17 ar
    30   17   18 1
    31   18   19 1
    32   19   24 ar
    33   19   20 ar
    34   20   21 ar
    35   20   44 1
    36   21   22 ar
    37   21   45 1
    38   22   23 ar
    39   22   25 1
    40   23   24 ar
    41   23   46 1
    42   24   47 1
    43   25   26 1
    44   26   27 1
    45   26   48 1
    46   26   49 1
    47   27   28 1
    48   27   50 1
    49   27   51 1
    50   28   33 1
    51   28   29 1
    52   28   63 1
    53   29   30 1
    54   29   52 1
    55   29   53 1
    56   30   31 1
    57   30   54 1
    58   30   55 1
    59   31   32 1
    60   31   56 1
    61   31   57 1
    62   32   33 1
    63   32   58 1
    64   32   59 1
    65   33   60 1
    66   33   61 1
    67   34   62 1
