@<TRIPOS>MOLECULE
CHEMBL511971
   65    69     0     0     0
SMALL
USER_CHARGES

@<TRIPOS>ATOM
      1 C1         -0.0319    1.0926    0.2021 C.ar      1 <0>        -0.0861
      2 C2          1.1051    1.8692    0.1578 C.ar      1 <0>        -0.1412
      3 C3          2.3563    1.2699    0.0854 C.ar      1 <0>         0.1100
      4 C4          2.4684   -0.1144    0.0573 C.ar      1 <0>        -0.1451
      5 C5          1.3379   -0.9007    0.1007 C.ar      1 <0>        -0.0819
      6 C6          0.0751   -0.3023    0.1741 C.ar      1 <0>        -0.0553
      7 C7         -1.1347   -1.1362    0.2211 C.2       1 <0>        -0.0467
      8 C8         -1.4725   -1.9243   -0.8393 C.2       1 <0>        -0.0348
      9 C9         -2.7290   -2.7003   -0.7865 C.ar      1 <0>        -0.0852
     10 C10        -2.7523   -4.0538   -1.1119 C.ar      1 <0>        -0.0649
     11 C11        -3.9420   -4.7511   -1.0526 C.ar      1 <0>        -0.1588
     12 C12        -5.1104   -4.1091   -0.6710 C.ar      1 <0>         0.1246
     13 C13        -5.0962   -2.7628   -0.3450 C.ar      1 <0>        -0.1668
     14 C14        -3.9109   -2.0529   -0.4006 C.ar      1 <0>         0.1443
     15 O1         -3.8725   -0.7327   -0.0855 O.3       1 <0>        -0.3212
     16 C15        -3.3126   -0.3738    1.1706 C.3       1 <0>         0.0724
     17 C16        -2.0155   -1.1364    1.4449 C.3       1 <0>        -0.1238
     18 F1         -6.2695   -4.8009   -0.6166 F         1 <0>        -0.1300
     19 C17        -0.5932   -2.0009   -2.0267 C.ar      1 <0>        -0.0509
     20 C18        -0.3856   -0.8698   -2.8179 C.ar      1 <0>        -0.0526
     21 C19         0.4343   -0.9451   -3.9234 C.ar      1 <0>        -0.1352
     22 C20         1.0531   -2.1445   -4.2508 C.ar      1 <0>         0.1147
     23 C21         0.8487   -3.2722   -3.4664 C.ar      1 <0>        -0.1992
     24 C22         0.0355   -3.2031   -2.3555 C.ar      1 <0>        -0.0715
     25 O2          1.8602   -2.2150   -5.3415 O.3       1 <0>        -0.3280
     26 C23         2.4649   -3.4794   -5.6204 C.3       1 <0>         0.0257
     27 C24         3.3314   -3.3643   -6.8762 C.3       1 <0>        -0.0011
     28 N1          4.4316   -2.4233   -6.6273 N.4       1 <0>        -0.3842
     29 C25         5.1692   -2.1942   -7.8755 C.3       1 <0>        -0.0071
     30 C26         6.2658   -1.1531   -7.6406 C.3       1 <0>        -0.1469
     31 C27         7.2271   -1.6662   -6.5646 C.3       1 <0>        -0.1387
     32 C28         6.4349   -1.9723   -5.2903 C.3       1 <0>        -0.1456
     33 C29         5.3321   -2.9830   -5.6123 C.3       1 <0>        -0.0128
     34 O3          3.4744    2.0406    0.0415 O.3       1 <0>        -0.5021
     35 H1         -1.0039    1.5595    0.2629 H         1 <0>         0.1299
     36 H2          1.0236    2.9459    0.1790 H         1 <0>         0.1324
     37 H3          3.4435   -0.5752    0.0010 H         1 <0>         0.1263
     38 H4          1.4262   -1.9768    0.0780 H         1 <0>         0.1236
     39 H5         -1.8436   -4.5558   -1.4097 H         1 <0>         0.1370
     40 H6         -3.9631   -5.8010   -1.3048 H         1 <0>         0.1427
     41 H7         -6.0095   -2.2683   -0.0485 H         1 <0>         0.1480
     42 H8         -3.1061    0.6965    1.1757 H         1 <0>         0.1058
     43 H9         -4.0307   -0.6006    1.9586 H         1 <0>         0.0670
     44 H10        -2.2523   -2.1651    1.7165 H         1 <0>         0.0850
     45 H11        -1.4840   -0.6615    2.2696 H         1 <0>         0.0956
     46 H12        -0.8670    0.0632   -2.5643 H         1 <0>         0.1341
     47 H13         0.5954   -0.0704   -4.5360 H         1 <0>         0.1333
     48 H14         1.3313   -4.2033   -3.7244 H         1 <0>         0.1283
     49 H15        -0.1189   -4.0791   -1.7431 H         1 <0>         0.1309
     50 H16         3.0862   -3.7791   -4.7765 H         1 <0>         0.0859
     51 H17         1.6875   -4.2260   -5.7826 H         1 <0>         0.1092
     52 H18         3.7401   -4.3432   -7.1265 H         1 <0>         0.1487
     53 H19         2.7235   -3.0016   -7.7051 H         1 <0>         0.1425
     54 H20         5.6213   -3.1291   -8.2067 H         1 <0>         0.1291
     55 H21         4.4831   -1.8321   -8.6412 H         1 <0>         0.1310
     56 H22         6.8135   -0.9858   -8.5681 H         1 <0>         0.1131
     57 H23         5.8148   -0.2177   -7.3096 H         1 <0>         0.0882
     58 H24         7.7168   -2.5743   -6.9164 H         1 <0>         0.0819
     59 H25         7.9776   -0.9046   -6.3531 H         1 <0>         0.0947
     60 H26         7.1035   -2.3905   -4.5377 H         1 <0>         0.1121
     61 H27         5.9874   -1.0539   -4.9105 H         1 <0>         0.0883
     62 H28         4.7662   -3.2033   -4.7071 H         1 <0>         0.1270
     63 H29         5.7807   -3.9011   -5.9917 H         1 <0>         0.1300
     64 H30         3.8424    2.2496    0.9110 H         1 <0>         0.3948
     65 H31         4.0555   -1.5477   -6.2958 H         1 <0>         0.4297
@<TRIPOS>BOND
     1    1    6 ar
     2    1    2 ar
     3    1   35 1
     4    2    3 ar
     5    2   36 1
     6    3    4 ar
     7    3   34 1
     8    4    5 ar
     9    4   37 1
    10    5    6 ar
    11    5   38 1
    12    6    7 1
    13    7   17 1
    14    7    8 2
    15    8    9 1
    16    8   19 1
    17    9   14 ar
    18    9   10 ar
    19   10   11 ar
    20   10   39 1
    21   11   12 ar
    22   11   40 1
    23   12   13 ar
    24   12   18 1
    25   13   14 ar
    26   13   41 1
    27   14   15 1
    28   15   16 1
    29   16   17 1
    30   16   42 1
    31   16   43 1
    32   17   44 1
    33   17   45 1
    34   19   24 ar
    35   19   20 ar
    36   20   21 ar
    37   20   46 1
    38   21   22 ar
    39   21   47 1
    40   22   23 ar
    41   22   25 1
    42   23   24 ar
    43   23   48 1
    44   24   49 1
    45   25   26 1
    46   26   27 1
    47   26   50 1
    48   26   51 1
    49   27   28 1
    50   27   52 1
    51   27   53 1
    52   28   33 1
    53   28   29 1
    54   28   65 1
    55   29   30 1
    56   29   54 1
    57   29   55 1
    58   30   31 1
    59   30   56 1
    60   30   57 1
    61   31   32 1
    62   31   58 1
    63   31   59 1
    64   32   33 1
    65   32   60 1
    66   32   61 1
    67   33   62 1
    68   33   63 1
    69   34   64 1
