@<TRIPOS>MOLECULE
CHEMBL377224
   44    48     0     0     0
SMALL
USER_CHARGES

@<TRIPOS>ATOM
      1 C1         -0.0167    1.3781    0.0096 C.ar      1 <0>        -0.1169
      2 C2          1.1709    2.0855    0.0021 C.ar      1 <0>        -0.1157
      3 C3          2.3773    1.4107   -0.0130 C.ar      1 <0>        -0.1095
      4 C4          2.3960    0.0285   -0.0201 C.ar      1 <0>        -0.0664
      5 C5          1.2084   -0.6789   -0.0117 C.ar      1 <0>        -0.1107
      6 C6          0.0021   -0.0041    0.0020 C.ar      1 <0>        -0.1143
      7 C7          3.7112   -0.7071   -0.0376 C.3       1 <0>         0.0014
      8 C8          4.5606   -0.3599    1.1862 C.3       1 <0>        -0.1035
      9 C9          3.8168   -0.8102    2.4471 C.3       1 <0>        -0.1602
     10 C10         3.5353   -2.2885    2.3947 C.2       1 <0>         0.4014
     11 O1          3.4279   -2.9195    3.4260 O.2       1 <0>        -0.4462
     12 C11         3.3896   -2.9705    1.1028 C.2       1 <0>        -0.1292
     13 C12         3.5076   -2.2171   -0.0430 C.2       1 <0>         0.0483
     14 C13         3.5146   -2.6287   -1.4329 C.ar      1 <0>        -0.1085
     15 C14         3.0104   -3.8004   -2.0260 C.ar      1 <0>        -0.0473
     16 C15         3.1920   -3.9459   -3.3779 C.ar      1 <0>        -0.1581
     17 C16         3.8447   -2.9862   -4.1386 C.ar      1 <0>         0.1360
     18 C17         4.3380   -1.8084   -3.5711 C.ar      1 <0>        -0.1367
     19 C18         4.1500   -1.6378   -2.2164 C.ar      1 <0>        -0.0452
     20 C19         4.4809   -0.4555   -1.3489 C.3       1 <0>        -0.0757
     21 O2          4.0081   -3.1971   -5.4694 O.3       1 <0>        -0.4984
     22 C20         3.1250   -4.4205    1.0347 C.2       1 <0>         0.0354
     23 C21         3.9658   -5.4066    1.4515 C.2       1 <0>        -0.1747
     24 C22         3.3130   -6.6296    1.1998 C.2       1 <0>        -0.2071
     25 C23         2.1195   -6.3342    0.6481 C.2       1 <0>        -0.0413
     26 O3          2.0070   -4.9985    0.5548 O.3       1 <0>        -0.1724
     27 H1         -0.9591    1.9053    0.0259 H         1 <0>         0.1233
     28 H2          1.1563    3.1654    0.0076 H         1 <0>         0.1253
     29 H3          3.3051    1.9634   -0.0196 H         1 <0>         0.1260
     30 H4          1.2231   -1.7588   -0.0176 H         1 <0>         0.1205
     31 H5         -0.9258   -0.5567    0.0082 H         1 <0>         0.1232
     32 H6          5.5191   -0.8752    1.1238 H         1 <0>         0.0827
     33 H7          4.7244    0.7171    1.2236 H         1 <0>         0.0904
     34 H8          4.4280   -0.5913    3.3227 H         1 <0>         0.1047
     35 H9          2.8747   -0.2671    2.5221 H         1 <0>         0.1070
     36 H10         2.5023   -4.5535   -1.4419 H         1 <0>         0.1408
     37 H11         2.8161   -4.8337   -3.8646 H         1 <0>         0.1320
     38 H12         4.8450   -1.0646   -4.1678 H         1 <0>         0.1429
     39 H13         4.1404    0.4674   -1.8184 H         1 <0>         0.0968
     40 H14         5.5532   -0.4126   -1.1580 H         1 <0>         0.1001
     41 H15         3.2836   -2.8585   -6.0131 H         1 <0>         0.3957
     42 H16         4.9442   -5.2766    1.8900 H         1 <0>         0.1474
     43 H17         3.6967   -7.6172    1.4091 H         1 <0>         0.1514
     44 H18         1.3752   -7.0520    0.3363 H         1 <0>         0.2055
@<TRIPOS>BOND
     1    1    6 ar
     2    1    2 ar
     3    1   27 1
     4    2    3 ar
     5    2   28 1
     6    3    4 ar
     7    3   29 1
     8    4    5 ar
     9    4    7 1
    10    5    6 ar
    11    5   30 1
    12    6   31 1
    13    7   13 1
    14    7   20 1
    15    7    8 1
    16    8    9 1
    17    8   32 1
    18    8   33 1
    19    9   10 1
    20    9   34 1
    21    9   35 1
    22   10   11 2
    23   10   12 1
    24   12   13 2
    25   12   22 1
    26   13   14 1
    27   14   19 ar
    28   14   15 ar
    29   15   16 ar
    30   15   36 1
    31   16   17 ar
    32   16   37 1
    33   17   18 ar
    34   17   21 1
    35   18   19 ar
    36   18   38 1
    37   19   20 1
    38   20   39 1
    39   20   40 1
    40   21   41 1
    41   22   26 1
    42   22   23 2
    43   23   24 1
    44   23   42 1
    45   24   25 2
    46   24   43 1
    47   25   26 1
    48   25   44 1
