@<TRIPOS>MOLECULE
CHEMBL150735
   62    66     0     0     0
SMALL
USER_CHARGES

@<TRIPOS>ATOM
      1 C1         -1.1129   -2.9838   -3.0485 C.ar      1 <0>        -0.0741
      2 C2         -0.5915   -3.1262   -4.3155 C.ar      1 <0>        -0.1422
      3 C3         -0.2653   -2.0027   -5.0652 C.ar      1 <0>         0.1265
      4 C4         -0.4637   -0.7310   -4.5414 C.ar      1 <0>        -0.1428
      5 C5         -0.9846   -0.5789   -3.2754 C.ar      1 <0>        -0.0721
      6 C6         -1.3142   -1.7064   -2.5174 C.ar      1 <0>        -0.0431
      7 C7         -1.8725   -1.5488   -1.1620 C.2       1 <0>        -0.0500
      8 C8         -1.5049   -2.2090    0.0030 C.2       1 <0>        -0.1669
      9 C9         -2.2187   -1.8718    1.2371 C.ar      1 <0>        -0.0738
     10 C10        -2.0244   -2.4048    2.5316 C.ar      1 <0>        -0.0617
     11 C11        -2.7851   -1.9768    3.5875 C.ar      1 <0>        -0.1357
     12 C12        -3.7698   -1.0071    3.4205 C.ar      1 <0>         0.1383
     13 C13        -3.9832   -0.4655    2.1631 C.ar      1 <0>        -0.1000
     14 C14        -3.2202   -0.8929    1.0967 C.ar      1 <0>        -0.1022
     15 S1         -3.1757   -0.4597   -0.6235 S.3       1 <0>         0.1000
     16 O1         -4.5149   -0.5959    4.4804 O.3       1 <0>        -0.4892
     17 C15        -0.4383   -3.2106   -0.0020 C.2       1 <0>         0.4624
     18 O2         -0.7122   -4.3916   -0.1210 O.2       1 <0>        -0.4288
     19 C16         0.9695   -2.7900    0.1371 C.ar      1 <0>        -0.1534
     20 C17         1.2785   -1.4499    0.3903 C.ar      1 <0>        -0.0365
     21 C18         2.5872   -1.0622    0.5196 C.ar      1 <0>        -0.1030
     22 C19         3.6086   -2.0017    0.3989 C.ar      1 <0>        -0.0666
     23 C20         3.3038   -3.3373    0.1463 C.ar      1 <0>        -0.1450
     24 C21         1.9967   -3.7318    0.0218 C.ar      1 <0>        -0.0374
     25 S2          5.2893   -1.4997    0.5657 S.3       1 <0>        -0.0464
     26 C22         6.2303   -3.0334    0.3354 C.3       1 <0>        -0.1692
     27 C23         7.7263   -2.7369    0.4570 C.3       1 <0>         0.0103
     28 N1          8.4884   -3.9789    0.2705 N.4       1 <0>        -0.3804
     29 C24         8.1785   -4.9099    1.3622 C.3       1 <0>        -0.0141
     30 C25         8.9070   -6.2352    1.1296 C.3       1 <0>        -0.1456
     31 C26        10.4165   -5.9810    1.0865 C.3       1 <0>        -0.1399
     32 C27        10.7200   -4.9523   -0.0066 C.3       1 <0>        -0.1461
     33 C28         9.9243   -3.6744    0.2681 C.3       1 <0>        -0.0064
     34 O3          0.2493   -2.1479   -6.3134 O.3       1 <0>        -0.4986
     35 H1         -1.3700   -3.8576   -2.4681 H         1 <0>         0.1333
     36 H2         -0.4356   -4.1127   -4.7266 H         1 <0>         0.1366
     37 H3         -0.2087    0.1394   -5.1277 H         1 <0>         0.1385
     38 H4         -1.1381    0.4098   -2.8689 H         1 <0>         0.1354
     39 H5         -1.2676   -3.1588    2.6901 H         1 <0>         0.1269
     40 H6         -2.6179   -2.3995    4.5672 H         1 <0>         0.1394
     41 H7         -4.7439    0.2873    2.0187 H         1 <0>         0.1434
     42 H8         -4.1375    0.1549    4.9589 H         1 <0>         0.3983
     43 H9          0.4871   -0.7210    0.4836 H         1 <0>         0.1404
     44 H10         2.8264   -0.0273    0.7147 H         1 <0>         0.1397
     45 H11         4.0977   -4.0635    0.0529 H         1 <0>         0.1249
     46 H12         1.7607   -4.7682   -0.1693 H         1 <0>         0.1418
     47 H13         5.9399   -3.7558    1.0982 H         1 <0>         0.1122
     48 H14         6.0203   -3.4436   -0.6523 H         1 <0>         0.1125
     49 H15         8.0168   -2.0144   -0.3058 H         1 <0>         0.1430
     50 H16         7.9363   -2.3266    1.4448 H         1 <0>         0.1413
     51 H17         8.5025   -4.4791    2.3095 H         1 <0>         0.1318
     52 H18         7.1035   -5.0873    1.3936 H         1 <0>         0.1284
     53 H19         8.6770   -6.9245    1.9421 H         1 <0>         0.1131
     54 H20         8.5835   -6.6671    0.1825 H         1 <0>         0.0879
     55 H21        10.7491   -5.5970    2.0508 H         1 <0>         0.0827
     56 H22        10.9369   -6.9127    0.8647 H         1 <0>         0.0952
     57 H23        11.7859   -4.7245   -0.0062 H         1 <0>         0.1141
     58 H24        10.4341   -5.3575   -0.9773 H         1 <0>         0.0882
     59 H25        10.1382   -2.9398   -0.5082 H         1 <0>         0.1324
     60 H26        10.2111   -3.2700    1.2388 H         1 <0>         0.1306
     61 H27        -0.4178   -2.1785   -7.0128 H         1 <0>         0.3985
     62 H28         8.2333   -4.3997   -0.6103 H         1 <0>         0.4233
@<TRIPOS>BOND
     1    1    6 ar
     2    1    2 ar
     3    1   35 1
     4    2    3 ar
     5    2   36 1
     6    3    4 ar
     7    3   34 1
     8    4    5 ar
     9    4   37 1
    10    5    6 ar
    11    5   38 1
    12    6    7 1
    13    7   15 1
    14    7    8 2
    15    8    9 1
    16    8   17 1
    17    9   14 ar
    18    9   10 ar
    19   10   11 ar
    20   10   39 1
    21   11   12 ar
    22   11   40 1
    23   12   13 ar
    24   12   16 1
    25   13   14 ar
    26   13   41 1
    27   14   15 1
    28   16   42 1
    29   17   18 2
    30   17   19 1
    31   19   24 ar
    32   19   20 ar
    33   20   21 ar
    34   20   43 1
    35   21   22 ar
    36   21   44 1
    37   22   23 ar
    38   22   25 1
    39   23   24 ar
    40   23   45 1
    41   24   46 1
    42   25   26 1
    43   26   27 1
    44   26   47 1
    45   26   48 1
    46   27   28 1
    47   27   49 1
    48   27   50 1
    49   28   33 1
    50   28   29 1
    51   28   62 1
    52   29   30 1
    53   29   51 1
    54   29   52 1
    55   30   31 1
    56   30   53 1
    57   30   54 1
    58   31   32 1
    59   31   55 1
    60   31   56 1
    61   32   33 1
    62   32   57 1
    63   32   58 1
    64   33   59 1
    65   33   60 1
    66   34   61 1
