@<TRIPOS>MOLECULE
CHEMBL200021
   32    34     0     0     0
SMALL
USER_CHARGES

@<TRIPOS>ATOM
      1 C1          0.1454    1.6497   -0.1752 C.ar      1 <0>        -0.1016
      2 C2          1.3625    2.2727   -0.3848 C.ar      1 <0>        -0.1176
      3 C3          2.5307    1.5385   -0.3550 C.ar      1 <0>        -0.0873
      4 C4          2.4826    0.1670   -0.1128 C.ar      1 <0>        -0.0538
      5 C5          1.2537   -0.4554    0.0981 C.ar      1 <0>        -0.0858
      6 C6          0.0917    0.2886    0.0657 C.ar      1 <0>        -0.1174
      7 C7          3.7349   -0.6276   -0.0800 C.2       1 <0>        -0.1114
      8 C8          4.1670   -1.6189   -1.0730 C.2       1 <0>         0.1662
      9 N1          5.3235   -2.0854   -0.6694 N.2       1 <0>        -0.2671
     10 O1          5.6660   -1.4432    0.5429 O.3       1 <0>        -0.0452
     11 C9          4.7021   -0.5723    0.8706 C.2       1 <0>        -0.0272
     12 C10         4.6919    0.3149    2.0887 C.3       1 <0>         0.5563
     13 F1          4.0715   -0.3553    3.1486 F         1 <0>        -0.1552
     14 F2          6.0068    0.6337    2.4444 F         1 <0>        -0.1578
     15 F3          3.9879    1.4898    1.8040 F         1 <0>        -0.1476
     16 C11         3.4343   -2.0169   -2.2990 C.ar      1 <0>        -0.0566
     17 C12         2.7984   -1.0507   -3.0775 C.ar      1 <0>        -0.0568
     18 C13         2.1183   -1.4239   -4.2172 C.ar      1 <0>        -0.1449
     19 C14         2.0662   -2.7605   -4.5901 C.ar      1 <0>         0.1336
     20 C15         2.6981   -3.7252   -3.8166 C.ar      1 <0>        -0.1464
     21 C16         3.3847   -3.3575   -2.6789 C.ar      1 <0>        -0.0615
     22 O2          1.3953   -3.1251   -5.7136 O.3       1 <0>        -0.4969
     23 H1         -0.7659    2.2288   -0.1954 H         1 <0>         0.1274
     24 H2          1.3986    3.3357   -0.5724 H         1 <0>         0.1296
     25 H3          3.4804    2.0259   -0.5194 H         1 <0>         0.1257
     26 H4          1.2106   -1.5180    0.2863 H         1 <0>         0.1243
     27 H5         -0.8612   -0.1927    0.2286 H         1 <0>         0.1290
     28 H6          2.8382   -0.0110   -2.7878 H         1 <0>         0.1343
     29 H7          1.6252   -0.6759   -4.8204 H         1 <0>         0.1392
     30 H8          2.6553   -4.7640   -4.1088 H         1 <0>         0.1395
     31 H9          3.8801   -4.1077   -2.0804 H         1 <0>         0.1351
     32 H10         1.9391   -3.1270   -6.5132 H         1 <0>         0.3976
@<TRIPOS>BOND
     1    1    6 ar
     2    1    2 ar
     3    1   23 1
     4    2    3 ar
     5    2   24 1
     6    3    4 ar
     7    3   25 1
     8    4    5 ar
     9    4    7 1
    10    5    6 ar
    11    5   26 1
    12    6   27 1
    13    7   11 2
    14    7    8 1
    15    8    9 2
    16    8   16 1
    17    9   10 1
    18   10   11 1
    19   11   12 1
    20   12   13 1
    21   12   14 1
    22   12   15 1
    23   16   21 ar
    24   16   17 ar
    25   17   18 ar
    26   17   28 1
    27   18   19 ar
    28   18   29 1
    29   19   20 ar
    30   19   22 1
    31   20   21 ar
    32   20   30 1
    33   21   31 1
    34   22   32 1
