@<TRIPOS>MOLECULE
CHEMBL19535
   82    85     0     0     0
SMALL
USER_CHARGES

@<TRIPOS>ATOM
      1 C1         -0.6896    1.7569   -0.7403 C.3       1 <0>        -0.1512
      2 C2         -0.0344    0.3874   -0.5506 C.3       1 <0>        -0.1169
      3 C3          0.7565    0.3773    0.7591 C.3       1 <0>        -0.0371
      4 C4         -0.1923    0.5297    1.9200 C.ar      1 <0>        -0.0610
      5 C5         -1.1860   -0.4084    2.1282 C.ar      1 <0>        -0.1146
      6 C6         -2.0563   -0.2687    3.1931 C.ar      1 <0>        -0.1173
      7 C7         -1.9325    0.8089    4.0501 C.ar      1 <0>        -0.1247
      8 C8         -0.9382    1.7465    3.8424 C.ar      1 <0>        -0.1157
      9 C9         -0.0653    1.6045    2.7800 C.ar      1 <0>        -0.1111
     10 C10         1.5122   -0.9467    0.8884 C.3       1 <0>         0.0057
     11 C11         2.4609   -1.0990   -0.2725 C.ar      1 <0>        -0.0744
     12 C12         3.3612   -0.0912   -0.5649 C.ar      1 <0>        -0.0971
     13 C13         4.2316   -0.2282   -1.6289 C.ar      1 <0>        -0.1411
     14 C14         4.2022   -1.3785   -2.4039 C.ar      1 <0>         0.1006
     15 C15         3.2983   -2.3885   -2.1081 C.ar      1 <0>        -0.1416
     16 C16         2.4335   -2.2488   -1.0400 C.ar      1 <0>        -0.0985
     17 O1          5.0572   -1.5155   -3.4514 O.3       1 <0>        -0.5008
     18 C17         2.2912   -0.9566    2.1784 C.ar      1 <0>        -0.1044
     19 C18         3.1355    0.0952    2.4828 C.ar      1 <0>        -0.0720
     20 C19         3.8510    0.0883    3.6645 C.ar      1 <0>        -0.1484
     21 C20         3.7215   -0.9749    4.5463 C.ar      1 <0>         0.1346
     22 C21         2.8734   -2.0288    4.2387 C.ar      1 <0>        -0.2083
     23 C22         2.1561   -2.0147    3.0581 C.ar      1 <0>        -0.0693
     24 O2          4.4247   -0.9842    5.7092 O.3       1 <0>        -0.2947
     25 C23         4.2419   -2.1110    6.5689 C.3       1 <0>         0.0660
     26 C24         5.1083   -1.9447    7.8188 C.3       1 <0>         0.0548
     27 N1          4.6595   -0.7664    8.5726 N.3       1 <0>        -0.5281
     28 C25         5.6673   -0.3579    9.5602 C.3       1 <0>         0.0217
     29 C26         3.3626   -1.0157    9.2160 C.3       1 <0>         0.0520
     30 C27         2.8112    0.2964    9.7774 C.3       1 <0>         0.0796
     31 O3          2.5330    1.1951    8.7018 O.3       1 <0>        -0.2113
     32 N2          2.0155    2.4464    9.1160 N.2       1 <0>        -0.3381
     33 C28         1.7226    3.3486    8.2361 C.2       1 <0>         0.1464
     34 C29         1.1832    4.6525    8.6677 C.ar      1 <0>        -0.0742
     35 C30         0.9939    4.9154   10.0290 C.ar      1 <0>        -0.0367
     36 C31         0.4904    6.1303   10.4372 C.ar      1 <0>        -0.1591
     37 C32         0.1668    7.1037    9.5009 C.ar      1 <0>         0.1889
     38 C33         0.3525    6.8510    8.1337 C.ar      1 <0>        -0.1744
     39 C34         0.8679    5.6236    7.7207 C.ar      1 <0>        -0.0381
     40 C35         0.0086    7.8830    7.1365 C.2       1 <0>         0.5640
     41 O4         -0.4365    8.9547    7.4995 O.2       1 <0>        -0.5217
     42 N3          0.1880    7.6377    5.8235 N.am      1 <0>        -0.8525
     43 O5         -0.3289    8.2979    9.9084 O.3       1 <0>        -0.4766
     44 H1          0.0813    2.5267   -0.7755 H         1 <0>         0.0527
     45 H2         -1.2530    1.7641   -1.6733 H         1 <0>         0.0535
     46 H3         -1.3638    1.9557    0.0928 H         1 <0>         0.0558
     47 H4         -0.8053   -0.3824   -0.5154 H         1 <0>         0.0639
     48 H5          0.6397    0.1886   -1.3837 H         1 <0>         0.0692
     49 H6          1.4677    1.2033    0.7604 H         1 <0>         0.0806
     50 H7         -1.2827   -1.2504    1.4587 H         1 <0>         0.1172
     51 H8         -2.8331   -1.0013    3.3554 H         1 <0>         0.1180
     52 H9         -2.6129    0.9185    4.8816 H         1 <0>         0.1170
     53 H10        -0.8418    2.5886    4.5117 H         1 <0>         0.1173
     54 H11         0.7139    2.3350    2.6199 H         1 <0>         0.1166
     55 H12         0.8009   -1.7726    0.8872 H         1 <0>         0.0862
     56 H13         3.3836    0.8041    0.0387 H         1 <0>         0.1255
     57 H14         4.9341    0.5596   -1.8573 H         1 <0>         0.1276
     58 H15         3.2734   -3.2849   -2.7100 H         1 <0>         0.1275
     59 H16         1.7326   -3.0367   -0.8066 H         1 <0>         0.1251
     60 H17         5.8994   -1.9305   -3.2200 H         1 <0>         0.3905
     61 H18         3.2360    0.9226    1.7961 H         1 <0>         0.1238
     62 H19         4.5110    0.9097    3.9015 H         1 <0>         0.1271
     63 H20         2.7709   -2.8576    4.9235 H         1 <0>         0.1223
     64 H21         1.4923   -2.8327    2.8203 H         1 <0>         0.1192
     65 H22         3.1937   -2.1796    6.8599 H         1 <0>         0.0611
     66 H23         4.5333   -3.0202    6.0431 H         1 <0>         0.0645
     67 H24         5.0176   -2.8325    8.4446 H         1 <0>         0.0581
     68 H25         6.1495   -1.8126    7.5243 H         1 <0>         0.0885
     69 H26         6.6271   -0.2172    9.0631 H         1 <0>         0.0712
     70 H27         5.3597    0.5774   10.0277 H         1 <0>         0.0712
     71 H28         5.7630   -1.1309   10.3227 H         1 <0>         0.0268
     72 H29         2.6646   -1.4188    8.4824 H         1 <0>         0.0840
     73 H30         3.4913   -1.7324   10.0272 H         1 <0>         0.0586
     74 H31         1.8937    0.0976   10.3313 H         1 <0>         0.0607
     75 H32         3.5481    0.7446   10.4440 H         1 <0>         0.0598
     76 H33         1.8728    3.1473    7.1857 H         1 <0>         0.1263
     77 H34         1.2432    4.1626   10.7621 H         1 <0>         0.1422
     78 H35         0.3463    6.3269   11.4893 H         1 <0>         0.1427
     79 H36         1.0174    5.4245    6.6698 H         1 <0>         0.1373
     80 H37         0.5432    6.7828    5.5339 H         1 <0>         0.3996
     81 H38        -0.0380    8.3161    5.1680 H         1 <0>         0.4073
     82 H39         0.3479    8.9673   10.0786 H         1 <0>         0.4004
@<TRIPOS>BOND
     1    1    2 1
     2    1   44 1
     3    1   45 1
     4    1   46 1
     5    2    3 1
     6    2   47 1
     7    2   48 1
     8    3    4 1
     9    3   10 1
    10    3   49 1
    11    4    9 ar
    12    4    5 ar
    13    5    6 ar
    14    5   50 1
    15    6    7 ar
    16    6   51 1
    17    7    8 ar
    18    7   52 1
    19    8    9 ar
    20    8   53 1
    21    9   54 1
    22   10   11 1
    23   10   18 1
    24   10   55 1
    25   11   16 ar
    26   11   12 ar
    27   12   13 ar
    28   12   56 1
    29   13   14 ar
    30   13   57 1
    31   14   15 ar
    32   14   17 1
    33   15   16 ar
    34   15   58 1
    35   16   59 1
    36   17   60 1
    37   18   23 ar
    38   18   19 ar
    39   19   20 ar
    40   19   61 1
    41   20   21 ar
    42   20   62 1
    43   21   22 ar
    44   21   24 1
    45   22   23 ar
    46   22   63 1
    47   23   64 1
    48   24   25 1
    49   25   26 1
    50   25   65 1
    51   25   66 1
    52   26   27 1
    53   26   67 1
    54   26   68 1
    55   27   28 1
    56   27   29 1
    57   28   69 1
    58   28   70 1
    59   28   71 1
    60   29   30 1
    61   29   72 1
    62   29   73 1
    63   30   31 1
    64   30   74 1
    65   30   75 1
    66   31   32 1
    67   32   33 2
    68   33   34 1
    69   33   76 1
    70   34   39 ar
    71   34   35 ar
    72   35   36 ar
    73   35   77 1
    74   36   37 ar
    75   36   78 1
    76   37   38 ar
    77   37   43 1
    78   38   39 ar
    79   38   40 1
    80   39   79 1
    81   40   41 2
    82   40   42 am
    83   42   80 1
    84   42   81 1
    85   43   82 1
