@<TRIPOS>MOLECULE
CHEMBL250110
   51    54     0     0     0
SMALL
USER_CHARGES

@<TRIPOS>ATOM
      1 C1         -0.3679    1.4943    0.7882 C.3       1 <0>        -0.1149
      2 C2         -0.2252    0.0210    0.5053 C.2       1 <0>        -0.1177
      3 C3         -0.1811   -0.4486   -0.7510 C.2       1 <0>        -0.1393
      4 C4         -0.0581   -1.9251   -0.8621 C.2       1 <0>        -0.0762
      5 C5          0.8025   -2.4405   -1.7130 C.2       1 <0>        -0.1495
      6 C6          1.0214   -3.9110   -1.8957 C.3       1 <0>        -0.0829
      7 C7         -0.1417   -4.7113   -1.2997 C.3       1 <0>        -0.0734
      8 H1         -1.0335   -4.6055   -1.9174 H         1 <0>         0.0873
      9 C8          0.2641   -6.1710   -1.1977 C.3       1 <0>        -0.0838
     10 H2          1.1343   -6.2763   -0.5498 H         1 <0>         0.0747
     11 C9          0.5042   -6.8889   -2.5305 C.3       1 <0>        -0.1133
     12 C10         0.3168   -8.3849   -2.1581 C.3       1 <0>        -0.1565
     13 C11        -0.5783   -8.4118   -0.8943 C.3       1 <0>         0.1099
     14 H3         -0.0253   -8.8205   -0.0486 H         1 <0>         0.0550
     15 C12        -0.9418   -6.9523   -0.6127 C.3       1 <0>        -0.0562
     16 C13        -1.0636   -6.5438    0.8441 C.3       1 <0>        -0.1012
     17 C14        -1.4289   -5.0527    0.8626 C.3       1 <0>        -0.1229
     18 C15        -0.4072   -4.1887    0.1246 C.3       1 <0>        -0.0657
     19 H4          0.5256   -4.1813    0.6885 H         1 <0>         0.0689
     20 C16        -0.9478   -2.7590    0.0139 C.3       1 <0>        -0.0123
     21 C17        -1.0836   -2.1487    1.4019 C.3       1 <0>        -0.1078
     22 C18        -0.1196   -0.9871    1.6223 C.3       1 <0>        -0.0824
     23 C19        -2.3424   -2.8109   -0.6133 C.3       1 <0>        -0.1433
     24 C20        -2.2178   -6.5889   -1.3746 C.3       1 <0>        -0.1338
     25 O1         -1.7542   -9.1867   -1.1370 O.3       1 <0>        -0.5599
     26 H5          0.6204    1.9498    0.8501 H         1 <0>         0.0680
     27 H6         -0.9353    1.9652   -0.0146 H         1 <0>         0.0636
     28 H7         -0.8921    1.6337    1.7336 H         1 <0>         0.0641
     29 H8         -0.2315    0.1972   -1.6152 H         1 <0>         0.1221
     30 H9          1.3867   -1.7620   -2.3169 H         1 <0>         0.1030
     31 H10         1.1012   -4.1324   -2.9599 H         1 <0>         0.0711
     32 H11         1.9477   -4.2003   -1.3992 H         1 <0>         0.0717
     33 H12        -0.2324   -6.5809   -3.2726 H         1 <0>         0.0699
     34 H13         1.5164   -6.7050   -2.8908 H         1 <0>         0.0663
     35 H14        -0.1730   -8.9152   -2.9748 H         1 <0>         0.0722
     36 H15         1.2831   -8.8405   -1.9419 H         1 <0>         0.0668
     37 H16        -1.8479   -7.1250    1.3290 H         1 <0>         0.0660
     38 H17        -0.1135   -6.7003    1.3549 H         1 <0>         0.0619
     39 H18        -2.4007   -4.9206    0.3869 H         1 <0>         0.0741
     40 H19        -1.4950   -4.7174    1.8977 H         1 <0>         0.0622
     41 H20        -2.1055   -1.7924    1.5322 H         1 <0>         0.0648
     42 H21        -0.8826   -2.9184    2.1470 H         1 <0>         0.0701
     43 H22         0.9007   -1.3684    1.6642 H         1 <0>         0.0705
     44 H23        -0.3567   -0.4991    2.5677 H         1 <0>         0.0665
     45 H24        -2.2972   -3.3586   -1.5547 H         1 <0>         0.0578
     46 H25        -3.0285   -3.3146    0.0676 H         1 <0>         0.0614
     47 H26        -2.6949   -1.7964   -0.7997 H         1 <0>         0.0551
     48 H27        -2.0988   -6.8473   -2.4269 H         1 <0>         0.0533
     49 H28        -3.0598   -7.1415   -0.9578 H         1 <0>         0.0586
     50 H29        -2.4040   -5.5189   -1.2821 H         1 <0>         0.0610
     51 H30        -1.5776  -10.1133   -1.3500 H         1 <0>         0.3750
@<TRIPOS>BOND
     1    1    2 1
     2    1   26 1
     3    1   27 1
     4    1   28 1
     5    2   22 1
     6    2    3 2
     7    3    4 1
     8    3   29 1
     9    4   20 1
    10    4    5 2
    11    5    6 1
    12    5   30 1
    13    6    7 1
    14    6   31 1
    15    6   32 1
    16    7    8 1
    17    7   18 1
    18    7    9 1
    19    9   10 1
    20    9   15 1
    21    9   11 1
    22   11   12 1
    23   11   33 1
    24   11   34 1
    25   12   13 1
    26   12   35 1
    27   12   36 1
    28   13   14 1
    29   13   15 1
    30   13   25 1
    31   15   16 1
    32   15   24 1
    33   16   17 1
    34   16   37 1
    35   16   38 1
    36   17   18 1
    37   17   39 1
    38   17   40 1
    39   18   19 1
    40   18   20 1
    41   20   21 1
    42   20   23 1
    43   21   22 1
    44   21   41 1
    45   21   42 1
    46   22   43 1
    47   22   44 1
    48   23   45 1
    49   23   46 1
    50   23   47 1
    51   24   48 1
    52   24   49 1
    53   24   50 1
    54   25   51 1
