@<TRIPOS>MOLECULE
CHEMBL400480
   52    55     0     0     0
SMALL
USER_CHARGES

@<TRIPOS>ATOM
      1 C1          1.0127    2.0600    0.7323 C.3       1 <0>        -0.1339
      2 C2          1.3888    0.5782    0.7932 C.3       1 <0>        -0.0571
      3 C3          0.1817   -0.2729    0.4483 C.3       1 <0>        -0.1025
      4 C4         -0.9553    0.1454    1.3942 C.3       1 <0>        -0.1212
      5 C5         -0.5564   -0.0136    2.8582 C.3       1 <0>        -0.0606
      6 H1         -0.4110   -1.0711    3.0785 H         1 <0>         0.0698
      7 C6          0.7379    0.7539    3.1776 C.3       1 <0>        -0.0735
      8 H2          0.5841    1.8192    3.0059 H         1 <0>         0.0883
      9 C7          1.8167    0.2028    2.2374 C.3       1 <0>        -0.0833
     10 H3          1.9060   -0.8787    2.3395 H         1 <0>         0.0763
     11 C8          3.1882    0.8793    2.3399 C.3       1 <0>        -0.1133
     12 C9          3.8277    0.5807    0.9564 C.3       1 <0>        -0.1571
     13 C10         2.6537    0.3319   -0.0230 C.3       1 <0>         0.1102
     14 H4          2.6753   -0.6959   -0.3853 H         1 <0>         0.0565
     15 O1          2.7213    1.2460   -1.1194 O.3       1 <0>        -0.5599
     16 C11         1.1356    0.5206    4.6354 C.3       1 <0>        -0.1094
     17 C12         0.0564    1.0815    5.5690 C.3       1 <0>        -0.0988
     18 C13        -1.2661    0.4427    5.1796 C.2       1 <0>        -0.0832
     19 C14        -1.9824   -0.1618    6.1156 C.2       1 <0>        -0.1330
     20 C15        -3.2488   -0.8220    5.7334 C.2       1 <0>        -0.0915
     21 C16        -4.2362   -1.0089    6.6026 C.2       1 <0>        -0.1863
     22 C17        -3.3527   -1.2739    4.2884 C.3       1 <0>        -0.0839
     23 C18        -3.0154   -0.0731    3.4053 C.3       1 <0>        -0.1085
     24 C19        -1.6648    0.5405    3.7544 C.3       1 <0>         0.0158
     25 C20        -1.7662    2.0115    3.4432 C.2       1 <0>        -0.1467
     26 C21        -1.7399    2.8899    4.4147 C.2       1 <0>        -0.1981
     27 H5          1.8717    2.6651    1.0222 H         1 <0>         0.0533
     28 H6          0.7132    2.3174   -0.2837 H         1 <0>         0.0584
     29 H7          0.1851    2.2531    1.4149 H         1 <0>         0.0616
     30 H8         -0.1127   -0.0974   -0.5864 H         1 <0>         0.0661
     31 H9          0.4170   -1.3272    0.5944 H         1 <0>         0.0621
     32 H10        -1.2090    1.1886    1.2059 H         1 <0>         0.0718
     33 H11        -1.8300   -0.4737    1.1946 H         1 <0>         0.0665
     34 H12         3.0782    1.9533    2.4901 H         1 <0>         0.0702
     35 H13         3.7783    0.4351    3.1415 H         1 <0>         0.0653
     36 H14         4.4172    1.4353    0.6245 H         1 <0>         0.0720
     37 H15         4.4572   -0.3070    1.0190 H         1 <0>         0.0663
     38 H16         3.5054    1.1368   -1.6747 H         1 <0>         0.3746
     39 H17         1.2475   -0.5489    4.8132 H         1 <0>         0.0604
     40 H18         2.0832    1.0204    4.8363 H         1 <0>         0.0651
     41 H19         0.2966    0.8335    6.6029 H         1 <0>         0.0682
     42 H20        -0.0072    2.1635    5.4527 H         1 <0>         0.0854
     43 H21        -1.6464   -0.1725    7.1419 H         1 <0>         0.1180
     44 H22        -4.1272   -0.6745    7.6237 H         1 <0>         0.0992
     45 H23        -5.1477   -1.4953    6.2881 H         1 <0>         0.1008
     46 H24        -2.6447   -2.0813    4.1013 H         1 <0>         0.0736
     47 H25        -4.3669   -1.6140    4.0790 H         1 <0>         0.0716
     48 H26        -3.0043   -0.3934    2.3635 H         1 <0>         0.0776
     49 H27        -3.7881    0.6853    3.5310 H         1 <0>         0.0652
     50 H28        -1.8607    2.3415    2.4192 H         1 <0>         0.1115
     51 H29        -1.7469    2.5585    5.4426 H         1 <0>         0.1054
     52 H30        -1.7111    3.9454    4.1877 H         1 <0>         0.0950
@<TRIPOS>BOND
     1    1    2 1
     2    1   27 1
     3    1   28 1
     4    1   29 1
     5    2    9 1
     6    2   13 1
     7    2    3 1
     8    3    4 1
     9    3   30 1
    10    3   31 1
    11    4    5 1
    12    4   32 1
    13    4   33 1
    14    5    6 1
    15    5   24 1
    16    5    7 1
    17    7    8 1
    18    7    9 1
    19    7   16 1
    20    9   10 1
    21    9   11 1
    22   11   12 1
    23   11   34 1
    24   11   35 1
    25   12   13 1
    26   12   36 1
    27   12   37 1
    28   13   14 1
    29   13   15 1
    30   15   38 1
    31   16   17 1
    32   16   39 1
    33   16   40 1
    34   17   18 1
    35   17   41 1
    36   17   42 1
    37   18   24 1
    38   18   19 2
    39   19   20 1
    40   19   43 1
    41   20   21 2
    42   20   22 1
    43   21   44 1
    44   21   45 1
    45   22   23 1
    46   22   46 1
    47   22   47 1
    48   23   24 1
    49   23   48 1
    50   23   49 1
    51   24   25 1
    52   25   26 2
    53   25   50 1
    54   26   51 1
    55   26   52 1
