@<TRIPOS>MOLECULE
CHEMBL89995
   51    54     0     0     0
SMALL
USER_CHARGES

@<TRIPOS>ATOM
      1 C1         -0.6738    0.9200    0.0457 C.ar      1 <0>        -0.1447
      2 C2          0.3137    1.4547    0.8527 C.ar      1 <0>        -0.0973
      3 C3          1.6091    0.9840    0.7654 C.ar      1 <0>        -0.1540
      4 C4          1.9196   -0.0278   -0.1343 C.ar      1 <0>         0.2085
      5 C5          0.9252   -0.5627   -0.9435 C.ar      1 <0>        -0.1521
      6 C6         -0.3681   -0.0873   -0.8511 C.ar      1 <0>        -0.0969
      7 N1          3.2288   -0.5060   -0.2255 N.pl3     1 <0>        -0.6565
      8 C7          4.3599    0.4026   -0.4758 C.3       1 <0>         0.1382
      9 C8          5.2694    0.3692    0.7514 C.3       1 <0>        -0.1010
     10 C9          5.5406   -1.0492    1.1793 C.ar      1 <0>        -0.0542
     11 C10         6.6535   -1.2781    1.9783 C.ar      1 <0>        -0.1462
     12 C11         6.9548   -2.5563    2.4152 C.ar      1 <0>         0.1043
     13 C12         6.1373   -3.6174    2.0527 C.ar      1 <0>        -0.1440
     14 C13         5.0355   -3.3886    1.2565 C.ar      1 <0>        -0.0974
     15 C14         4.7372   -2.1064    0.8140 C.ar      1 <0>        -0.0791
     16 C15         3.5324   -1.9325   -0.0697 C.3       1 <0>         0.2089
     17 C16         2.3328   -2.6423    0.5611 C.3       1 <0>        -0.1271
     18 C17         1.9672   -1.9539    1.8777 C.3       1 <0>        -0.0958
     19 C18         3.0468   -2.2445    2.9221 C.3       1 <0>        -0.1294
     20 C19         2.6812   -1.5561    4.2387 C.3       1 <0>        -0.1158
     21 C20         1.3350   -2.0872    4.7353 C.3       1 <0>        -0.1189
     22 C21         0.2554   -1.7965    3.6908 C.3       1 <0>        -0.1158
     23 C22         0.6210   -2.4849    2.3743 C.3       1 <0>        -0.1105
     24 O1          8.0465   -2.7713    3.1954 O.3       1 <0>        -0.4998
     25 H1         -1.6869    1.2868    0.1191 H         1 <0>         0.1181
     26 H2          0.0717    2.2416    1.5517 H         1 <0>         0.1190
     27 H3          2.3799    1.4023    1.3957 H         1 <0>         0.1175
     28 H4          1.1633   -1.3492   -1.6443 H         1 <0>         0.1193
     29 H5         -1.1417   -0.5027   -1.4799 H         1 <0>         0.1196
     30 H6          4.9131    0.0695   -1.3540 H         1 <0>         0.0646
     31 H7          3.9910    1.4160   -0.6340 H         1 <0>         0.0805
     32 H8          6.2137    0.8579    0.5113 H         1 <0>         0.0811
     33 H9          4.7875    0.9045    1.5695 H         1 <0>         0.0784
     34 H10         7.2888   -0.4518    2.2611 H         1 <0>         0.1259
     35 H11         6.3630   -4.6172    2.3930 H         1 <0>         0.1280
     36 H12         4.3985   -4.2139    0.9742 H         1 <0>         0.1271
     37 H13         3.7380   -2.3684   -1.0473 H         1 <0>         0.0705
     38 H14         1.4837   -2.5965   -0.1209 H         1 <0>         0.0762
     39 H15         2.5876   -3.6843    0.7545 H         1 <0>         0.0737
     40 H16         1.8967   -0.8780    1.7177 H         1 <0>         0.0972
     41 H17         3.1173   -3.3204    3.0821 H         1 <0>         0.0530
     42 H18         4.0058   -1.8662    2.5683 H         1 <0>         0.0842
     43 H19         3.4503   -1.7632    4.9827 H         1 <0>         0.0536
     44 H20         2.6107   -0.4802    4.0787 H         1 <0>         0.0557
     45 H21         1.4055   -3.1631    4.8952 H         1 <0>         0.0580
     46 H22         1.0746   -1.5967    5.6732 H         1 <0>         0.0563
     47 H23        -0.7036   -2.1748    4.0446 H         1 <0>         0.0570
     48 H24         0.1849   -0.7206    3.5309 H         1 <0>         0.0596
     49 H25        -0.1481   -2.2779    1.6302 H         1 <0>         0.0578
     50 H26         0.6915   -3.5608    2.5342 H         1 <0>         0.0549
     51 H27         7.8719   -2.7021    4.1439 H         1 <0>         0.3901
@<TRIPOS>BOND
     1    1    6 ar
     2    1    2 ar
     3    1   25 1
     4    2    3 ar
     5    2   26 1
     6    3    4 ar
     7    3   27 1
     8    4    5 ar
     9    4    7 1
    10    5    6 ar
    11    5   28 1
    12    6   29 1
    13    7   16 1
    14    7    8 1
    15    8    9 1
    16    8   30 1
    17    8   31 1
    18    9   10 1
    19    9   32 1
    20    9   33 1
    21   10   15 ar
    22   10   11 ar
    23   11   12 ar
    24   11   34 1
    25   12   13 ar
    26   12   24 1
    27   13   14 ar
    28   13   35 1
    29   14   15 ar
    30   14   36 1
    31   15   16 1
    32   16   17 1
    33   16   37 1
    34   17   18 1
    35   17   38 1
    36   17   39 1
    37   18   23 1
    38   18   19 1
    39   18   40 1
    40   19   20 1
    41   19   41 1
    42   19   42 1
    43   20   21 1
    44   20   43 1
    45   20   44 1
    46   21   22 1
    47   21   45 1
    48   21   46 1
    49   22   23 1
    50   22   47 1
    51   22   48 1
    52   23   49 1
    53   23   50 1
    54   24   51 1
