@<TRIPOS>MOLECULE
CHEMBL434525
   62    67     0     0     0
SMALL
USER_CHARGES

@<TRIPOS>ATOM
      1 C1         -0.0395   -0.3691   -0.9229 C.ar      1 <0>        -0.0872
      2 C2          1.1593    0.3033   -1.0616 C.ar      1 <0>        -0.1389
      3 C3          1.2839    1.6016   -0.5885 C.ar      1 <0>         0.1158
      4 C4          0.2036    2.2212    0.0228 C.ar      1 <0>        -0.1463
      5 C5         -0.9930    1.5445    0.1591 C.ar      1 <0>        -0.0838
      6 C6         -1.1146    0.2507   -0.3132 C.ar      1 <0>        -0.0897
      7 C7         -2.4213   -0.4850   -0.1637 C.3       1 <0>        -0.0642
      8 H1         -3.2196    0.2192    0.0705 H         1 <0>         0.1381
      9 C8         -2.3062   -1.5376    0.9515 C.3       1 <0>         0.1495
     10 H2         -3.2085   -2.1488    0.9705 H         1 <0>         0.0961
     11 O1         -1.1795   -2.3624    0.6960 O.3       1 <0>        -0.3050
     12 C9         -1.0646   -3.0875   -0.4413 C.ar      1 <0>         0.1210
     13 C10        -0.2390   -4.2089   -0.4102 C.ar      1 <0>        -0.1139
     14 C11        -0.0634   -4.9845   -1.5376 C.ar      1 <0>        -0.1061
     15 C12        -0.7094   -4.6545   -2.7201 C.ar      1 <0>         0.0987
     16 C13        -1.5379   -3.5449   -2.7613 C.ar      1 <0>        -0.0901
     17 C14        -1.7205   -2.7680   -1.6249 C.ar      1 <0>        -0.1478
     18 S1         -2.8113   -1.3773   -1.7018 S.3       1 <0>        -0.0840
     19 O2         -0.5300   -5.4155   -3.8325 O.3       1 <0>        -0.4915
     20 C15        -2.1368   -0.8475    2.2805 C.ar      1 <0>        -0.1042
     21 C16        -0.8972   -0.3610    2.6524 C.ar      1 <0>        -0.0347
     22 C17        -0.7392    0.2716    3.8703 C.ar      1 <0>        -0.1419
     23 C18        -1.8258    0.4189    4.7202 C.ar      1 <0>         0.1225
     24 C19        -3.0686   -0.0698    4.3445 C.ar      1 <0>        -0.2029
     25 C20        -3.2225   -0.6970    3.1233 C.ar      1 <0>        -0.0589
     26 O3         -1.6729    1.0404    5.9191 O.3       1 <0>        -0.3248
     27 C21        -2.8349    1.1564    6.7426 C.3       1 <0>         0.0307
     28 C22        -2.4698    1.8785    8.0411 C.3       1 <0>        -0.0077
     29 N1         -2.0692    3.2589    7.7377 N.4       1 <0>        -0.3968
     30 C23        -0.7434    3.2730    7.0724 C.3       1 <0>        -0.0380
     31 C24         0.1612    4.1486    7.9938 C.3       1 <0>         0.0723
     32 C25        -0.9095    5.1659    8.5282 C.3       1 <0>        -0.1729
     33 C26        -1.8938    4.0372    9.0056 C.3       1 <0>        -0.0066
     34 C27        -0.8910    3.1747    9.8347 C.3       1 <0>         0.0206
     35 O4          0.3795    3.3205    9.1705 O.3       1 <0>        -0.3529
     36 O5          2.4622    2.2650   -0.7233 O.3       1 <0>        -0.4999
     37 H3         -0.1383   -1.3781   -1.2950 H         1 <0>         0.1323
     38 H4          1.9989   -0.1813   -1.5375 H         1 <0>         0.1315
     39 H5          0.2982    3.2316    0.3922 H         1 <0>         0.1292
     40 H6         -1.8343    2.0265    0.6349 H         1 <0>         0.1233
     41 H7          0.2690   -4.4737    0.5053 H         1 <0>         0.1413
     42 H8          0.5795   -5.8514   -1.4995 H         1 <0>         0.1430
     43 H9         -2.0428   -3.2833   -3.6795 H         1 <0>         0.1405
     44 H10        -1.1645   -6.1399   -3.9201 H         1 <0>         0.3947
     45 H11        -0.0517   -0.4759    1.9905 H         1 <0>         0.1387
     46 H12         0.2294    0.6508    4.1608 H         1 <0>         0.1347
     47 H13        -3.9160    0.0436    5.0044 H         1 <0>         0.1312
     48 H14        -4.1908   -1.0737    2.8284 H         1 <0>         0.1344
     49 H15        -3.5999    1.7246    6.2136 H         1 <0>         0.0867
     50 H16        -3.2164    0.1620    6.9748 H         1 <0>         0.1113
     51 H17        -3.3331    1.8887    8.7064 H         1 <0>         0.1519
     52 H18        -1.6435    1.3587    8.5260 H         1 <0>         0.1463
     53 H19        -0.3446    2.2611    7.0010 H         1 <0>         0.1555
     54 H20        -0.8215    3.7211    6.0818 H         1 <0>         0.1404
     55 H21         1.0549    4.5673    7.5312 H         1 <0>         0.1788
     56 H22        -0.5346    5.7685    9.3555 H         1 <0>         0.1344
     57 H23        -1.3338    5.7795    7.7335 H         1 <0>         0.1163
     58 H24        -2.8064    4.3602    9.5063 H         1 <0>         0.1877
     59 H25        -0.8276    3.5480   10.8569 H         1 <0>         0.1188
     60 H26        -1.2004    2.1296    9.8323 H         1 <0>         0.1009
     61 H27         2.5386    2.7679   -1.5457 H         1 <0>         0.3956
     62 H28        -2.7598    3.7014    7.1500 H         1 <0>         0.4256
@<TRIPOS>BOND
     1    1    6 ar
     2    1    2 ar
     3    1   37 1
     4    2    3 ar
     5    2   38 1
     6    3    4 ar
     7    3   36 1
     8    4    5 ar
     9    4   39 1
    10    5    6 ar
    11    5   40 1
    12    6    7 1
    13    7    8 1
    14    7   18 1
    15    7    9 1
    16    9   10 1
    17    9   11 1
    18    9   20 1
    19   11   12 1
    20   12   17 ar
    21   12   13 ar
    22   13   14 ar
    23   13   41 1
    24   14   15 ar
    25   14   42 1
    26   15   16 ar
    27   15   19 1
    28   16   17 ar
    29   16   43 1
    30   17   18 1
    31   19   44 1
    32   20   25 ar
    33   20   21 ar
    34   21   22 ar
    35   21   45 1
    36   22   23 ar
    37   22   46 1
    38   23   24 ar
    39   23   26 1
    40   24   25 ar
    41   24   47 1
    42   25   48 1
    43   26   27 1
    44   27   28 1
    45   27   49 1
    46   27   50 1
    47   28   29 1
    48   28   51 1
    49   28   52 1
    50   29   33 1
    51   29   30 1
    52   29   62 1
    53   30   31 1
    54   30   53 1
    55   30   54 1
    56   31   35 1
    57   31   32 1
    58   31   55 1
    59   32   33 1
    60   32   56 1
    61   32   57 1
    62   33   34 1
    63   33   58 1
    64   34   35 1
    65   34   59 1
    66   34   60 1
    67   36   61 1
