@<TRIPOS>MOLECULE
CHEMBL1081361
   45    48     0     0     0
SMALL
USER_CHARGES

@<TRIPOS>ATOM
      1 C1         -0.0187    1.5258    0.0104 C.3       1 <0>        -0.1450
      2 C2          0.0021   -0.0041    0.0020 C.3       1 <0>        -0.1026
      3 C3         -1.4301   -0.5323    0.0102 C.3       1 <0>        -0.1010
      4 C4         -2.1501   -0.0375    1.2711 C.3       1 <0>        -0.1143
      5 C5         -1.3942   -0.5217    2.5050 C.3       1 <0>        -0.0430
      6 H1         -1.3519   -1.6107    2.4845 H         1 <0>         0.0848
      7 C6         -2.0767   -0.0893    3.7714 C.ar      1 <0>        -0.0658
      8 C7         -3.4648   -0.0788    3.7987 C.ar      1 <0>        -0.0958
      9 C8         -4.1421    0.3019    4.9385 C.ar      1 <0>        -0.0647
     10 C9         -3.4276    0.6763    6.0689 C.ar      1 <0>         0.1150
     11 C10        -2.0444    0.6681    6.0396 C.ar      1 <0>        -0.1359
     12 C11        -1.3637    0.2899    4.8895 C.ar      1 <0>        -0.0532
     13 C12         0.1415    0.3296    4.9246 C.3       1 <0>        -0.0827
     14 C13         0.7437   -0.4440    3.7522 C.3       1 <0>        -0.1171
     15 C14         0.0338    0.0252    2.4830 C.3       1 <0>        -0.0772
     16 H2          0.0065    1.1142    2.4471 H         1 <0>         0.0853
     17 C15         0.7443   -0.5124    1.2454 C.3       1 <0>        -0.0663
     18 H3          0.7236   -1.6021    1.2600 H         1 <0>         0.0762
     19 C16         2.1934   -0.0348    1.1934 C.3       1 <0>        -0.1250
     20 C17         2.8966   -0.6689   -0.0096 C.3       1 <0>        -0.1132
     21 C18         2.2271   -0.2051   -1.3065 C.3       1 <0>        -0.1715
     22 C19         0.7421   -0.4906   -1.2210 C.2       1 <0>         0.3697
     23 O1          0.1693   -1.0868   -2.1012 O.2       1 <0>        -0.4501
     24 O2         -4.0842    1.0497    7.1989 O.3       1 <0>        -0.4874
     25 Cl1        -5.8780    0.3133    4.9597 Cl        1 <0>        -0.0572
     26 H4          1.0039    1.9031    0.0027 H         1 <0>         0.0661
     27 H5         -0.5459    1.8868   -0.8726 H         1 <0>         0.0592
     28 H6         -0.5289    1.8773    0.9072 H         1 <0>         0.0756
     29 H7         -1.9557   -0.1712   -0.8737 H         1 <0>         0.0723
     30 H8         -1.4154   -1.6222    0.0043 H         1 <0>         0.0677
     31 H9         -2.1820    1.0520    1.2680 H         1 <0>         0.0717
     32 H10        -3.1660   -0.4320    1.2885 H         1 <0>         0.0704
     33 H11        -4.0194   -0.3711    2.9192 H         1 <0>         0.1383
     34 H12        -1.4889    0.9591    6.9189 H         1 <0>         0.1366
     35 H13         0.4725    1.3670    4.8756 H         1 <0>         0.0813
     36 H14         0.4885   -0.1111    5.8592 H         1 <0>         0.0786
     37 H15         1.8104   -0.2313    3.6805 H         1 <0>         0.0781
     38 H16         0.5903   -1.5130    3.8995 H         1 <0>         0.0692
     39 H17         2.2150    1.0506    1.0964 H         1 <0>         0.0738
     40 H18         2.7056   -0.3280    2.1098 H         1 <0>         0.0766
     41 H19         3.9447   -0.3695   -0.0158 H         1 <0>         0.0762
     42 H20         2.8315   -1.7545    0.0635 H         1 <0>         0.0667
     43 H21         2.3861    0.8654   -1.4369 H         1 <0>         0.0985
     44 H22         2.6546   -0.7450   -2.1514 H         1 <0>         0.0878
     45 H23        -4.2736    0.3191    7.8034 H         1 <0>         0.3931
@<TRIPOS>BOND
     1    1    2 1
     2    1   26 1
     3    1   27 1
     4    1   28 1
     5    2   17 1
     6    2   22 1
     7    2    3 1
     8    3    4 1
     9    3   29 1
    10    3   30 1
    11    4    5 1
    12    4   31 1
    13    4   32 1
    14    5    6 1
    15    5   15 1
    16    5    7 1
    17    7   12 ar
    18    7    8 ar
    19    8    9 ar
    20    8   33 1
    21    9   10 ar
    22    9   25 1
    23   10   11 ar
    24   10   24 1
    25   11   12 ar
    26   11   34 1
    27   12   13 1
    28   13   14 1
    29   13   35 1
    30   13   36 1
    31   14   15 1
    32   14   37 1
    33   14   38 1
    34   15   16 1
    35   15   17 1
    36   17   18 1
    37   17   19 1
    38   19   20 1
    39   19   39 1
    40   19   40 1
    41   20   21 1
    42   20   41 1
    43   20   42 1
    44   21   22 1
    45   21   43 1
    46   21   44 1
    47   22   23 2
    48   24   45 1
