@<TRIPOS>MOLECULE
CHEMBL92027
   61    65     0     0     0
SMALL
USER_CHARGES

@<TRIPOS>ATOM
      1 C1          0.9048    0.7701   -0.9833 C.ar      1 <0>        -0.0955
      2 C2          2.0332    1.5621   -0.8754 C.ar      1 <0>        -0.1134
      3 C3          3.1887    1.0504   -0.3150 C.ar      1 <0>        -0.0635
      4 C4          3.2189   -0.2544    0.1384 C.ar      1 <0>        -0.1260
      5 C5          2.0883   -1.0509    0.0313 C.ar      1 <0>         0.1040
      6 C6          0.9297   -0.5348   -0.5312 C.ar      1 <0>        -0.1363
      7 O1          2.1155   -2.3346    0.4765 O.3       1 <0>        -0.4949
      8 C7          4.4167    1.9163   -0.1990 C.3       1 <0>        -0.0667
      9 H1          5.2919    1.2961   -0.0058 H         1 <0>         0.1385
     10 C8          4.2344    2.9357    0.9379 C.3       1 <0>         0.1497
     11 H2          5.0686    3.6373    0.9356 H         1 <0>         0.0970
     12 O2          3.0196    3.6418    0.7372 O.3       1 <0>        -0.3050
     13 C9          2.7879    4.3667   -0.3824 C.ar      1 <0>         0.1208
     14 C10         1.8520    5.3953   -0.3023 C.ar      1 <0>        -0.1137
     15 C11         1.5551    6.1638   -1.4089 C.ar      1 <0>        -0.1063
     16 C12         2.1875    5.9194   -2.6191 C.ar      1 <0>         0.0993
     17 C13         3.1247    4.9030   -2.7093 C.ar      1 <0>        -0.0898
     18 C14         3.4290    4.1338   -1.5939 C.ar      1 <0>        -0.1474
     19 S1          4.6546    2.8657   -1.7341 S.3       1 <0>        -0.0802
     20 O3          1.8889    6.6728   -3.7110 O.3       1 <0>        -0.4914
     21 C15         4.1871    2.2134    2.2597 C.ar      1 <0>        -0.1027
     22 C16         3.0193    1.5950    2.6668 C.ar      1 <0>        -0.0359
     23 C17         2.9732    0.9326    3.8782 C.ar      1 <0>        -0.1435
     24 C18         4.1000    0.8877    4.6863 C.ar      1 <0>         0.1234
     25 C19         5.2706    1.5086    4.2753 C.ar      1 <0>        -0.2028
     26 C20         5.3131    2.1653    3.0607 C.ar      1 <0>        -0.0578
     27 O4          4.0570    0.2371    5.8786 O.3       1 <0>        -0.3279
     28 C21         5.2546    0.2317    6.6583 C.3       1 <0>         0.0248
     29 C22         5.0148   -0.5425    7.9559 C.3       1 <0>        -0.0003
     30 N1          4.7318   -1.9493    7.6416 N.4       1 <0>        -0.3869
     31 C23         4.3578   -2.6606    8.8718 C.3       1 <0>        -0.0439
     32 C24         4.0632   -4.1260    8.5417 C.3       1 <0>         0.0355
     33 O5          5.2139   -4.7111    7.9258 O.3       1 <0>        -0.3555
     34 C25         5.6321   -4.0379    6.7350 C.3       1 <0>         0.0371
     35 C26         5.9296   -2.5724    7.0618 C.3       1 <0>        -0.0500
     36 H3          0.0019    1.1736   -1.4174 H         1 <0>         0.1310
     37 H4          2.0119    2.5821   -1.2299 H         1 <0>         0.1313
     38 H5          4.1221   -0.6539    0.5754 H         1 <0>         0.1249
     39 H6          0.0480   -1.1528   -0.6154 H         1 <0>         0.1316
     40 H7          1.8569   -2.4352    1.4029 H         1 <0>         0.3858
     41 H8          1.3536    5.5929    0.6352 H         1 <0>         0.1412
     42 H9          0.8276    6.9583   -1.3327 H         1 <0>         0.1430
     43 H10         3.6195    4.7083   -3.6493 H         1 <0>         0.1407
     44 H11         2.4412    7.4606   -3.8082 H         1 <0>         0.3948
     45 H12         2.1424    1.6302    2.0374 H         1 <0>         0.1392
     46 H13         2.0606    0.4503    4.1961 H         1 <0>         0.1348
     47 H14         6.1491    1.4751    4.9026 H         1 <0>         0.1318
     48 H15         6.2254    2.6450    2.7383 H         1 <0>         0.1356
     49 H16         6.0543   -0.2463    6.0925 H         1 <0>         0.0872
     50 H17         5.5391    1.2571    6.8942 H         1 <0>         0.1121
     51 H18         5.9034   -0.4823    8.5844 H         1 <0>         0.1513
     52 H19         4.1655   -0.1105    8.4852 H         1 <0>         0.1451
     53 H20         5.1788   -2.6069    9.5868 H         1 <0>         0.1405
     54 H21         3.4692   -2.1992    9.3028 H         1 <0>         0.1443
     55 H22         3.8274   -4.6655    9.4590 H         1 <0>         0.1436
     56 H23         3.2163   -4.1818    7.8578 H         1 <0>         0.0819
     57 H24         6.5318   -4.5137    6.3448 H         1 <0>         0.1428
     58 H25         4.8389   -4.0908    5.9893 H         1 <0>         0.0819
     59 H26         6.2078   -2.0456    6.1490 H         1 <0>         0.1397
     60 H27         6.7500   -2.5187    7.7774 H         1 <0>         0.1416
     61 H28         3.9722   -1.9999    6.9794 H         1 <0>         0.4298
@<TRIPOS>BOND
     1    1    6 ar
     2    1    2 ar
     3    1   36 1
     4    2    3 ar
     5    2   37 1
     6    3    4 ar
     7    3    8 1
     8    4    5 ar
     9    4   38 1
    10    5    6 ar
    11    5    7 1
    12    6   39 1
    13    7   40 1
    14    8    9 1
    15    8   19 1
    16    8   10 1
    17   10   11 1
    18   10   12 1
    19   10   21 1
    20   12   13 1
    21   13   18 ar
    22   13   14 ar
    23   14   15 ar
    24   14   41 1
    25   15   16 ar
    26   15   42 1
    27   16   17 ar
    28   16   20 1
    29   17   18 ar
    30   17   43 1
    31   18   19 1
    32   20   44 1
    33   21   26 ar
    34   21   22 ar
    35   22   23 ar
    36   22   45 1
    37   23   24 ar
    38   23   46 1
    39   24   25 ar
    40   24   27 1
    41   25   26 ar
    42   25   47 1
    43   26   48 1
    44   27   28 1
    45   28   29 1
    46   28   49 1
    47   28   50 1
    48   29   30 1
    49   29   51 1
    50   29   52 1
    51   30   35 1
    52   30   31 1
    53   30   61 1
    54   31   32 1
    55   31   53 1
    56   31   54 1
    57   32   33 1
    58   32   55 1
    59   32   56 1
    60   33   34 1
    61   34   35 1
    62   34   57 1
    63   34   58 1
    64   35   59 1
    65   35   60 1
