@<TRIPOS>MOLECULE
CHEMBL151318
   64    68     0     0     0
SMALL
USER_CHARGES

@<TRIPOS>ATOM
      1 C1         -0.0356    0.6751    0.1503 C.ar      1 <0>        -0.1263
      2 C2          1.0559    1.5154    0.0744 C.ar      1 <0>        -0.0553
      3 C3          2.3449    0.9800    0.0548 C.ar      1 <0>        -0.1530
      4 C4          2.5203   -0.4036    0.1123 C.ar      1 <0>        -0.0566
      5 C5          1.4203   -1.2327    0.1880 C.ar      1 <0>        -0.1258
      6 C6          0.1453   -0.6955    0.2070 C.ar      1 <0>        -0.0654
      7 C7         -1.0517   -1.6073    0.2899 C.3       1 <0>        -0.0778
      8 C8         -1.5061   -1.9820   -1.1222 C.3       1 <0>        -0.1451
      9 C9         -2.7214   -2.9077   -1.0381 C.3       1 <0>        -0.0107
     10 N1         -3.1576   -3.2675   -2.3939 N.4       1 <0>        -0.3830
     11 C10        -3.6238   -2.0634   -3.0920 C.3       1 <0>        -0.0123
     12 C11        -4.0033   -2.4183   -4.5312 C.3       1 <0>        -0.1462
     13 C12        -5.1204   -3.4656   -4.5153 C.3       1 <0>        -0.1396
     14 C13        -4.6499   -4.6875   -3.7210 C.3       1 <0>        -0.1466
     15 C14        -4.2464   -4.2485   -2.3118 C.3       1 <0>        -0.0068
     16 C15         3.5197    1.8749   -0.0269 C.2       1 <0>         0.4605
     17 O1          3.3630    3.0735   -0.1753 O.2       1 <0>        -0.4294
     18 C16         4.8691    1.3206    0.0703 C.2       1 <0>        -0.1670
     19 C17         5.6413    0.9961   -1.1320 C.ar      1 <0>        -0.0724
     20 C18         5.2563    1.1457   -2.4835 C.ar      1 <0>        -0.0620
     21 C19         6.1056    0.7902   -3.4980 C.ar      1 <0>        -0.1366
     22 C20         7.3697    0.2719   -3.2316 C.ar      1 <0>         0.1366
     23 C21         7.7753    0.1137   -1.9161 C.ar      1 <0>        -0.0997
     24 C22         6.9244    0.4704   -0.8912 C.ar      1 <0>        -0.1029
     25 S1          7.0588    0.4258    0.8776 S.3       1 <0>         0.0979
     26 C23         5.4620    1.0902    1.3057 C.2       1 <0>        -0.0479
     27 C24         4.9036    1.3353    2.6478 C.ar      1 <0>        -0.0450
     28 C25         4.9947    0.3501    3.6357 C.ar      1 <0>        -0.0722
     29 C26         4.4720    0.5837    4.8884 C.ar      1 <0>        -0.1436
     30 C27         3.8547    1.7962    5.1711 C.ar      1 <0>         0.1283
     31 C28         3.7614    2.7781    4.1922 C.ar      1 <0>        -0.1415
     32 C29         4.2864    2.5557    2.9384 C.ar      1 <0>        -0.0727
     33 O2          3.3408    2.0221    6.4075 O.3       1 <0>        -0.4978
     34 O3          8.1980   -0.0759   -4.2518 O.3       1 <0>        -0.4911
     35 H1         -1.0332    1.0882    0.1700 H         1 <0>         0.1300
     36 H2          0.9134    2.5850    0.0298 H         1 <0>         0.1376
     37 H3          3.5149   -0.8242    0.0972 H         1 <0>         0.1318
     38 H4          1.5546   -2.3034    0.2326 H         1 <0>         0.1295
     39 H5         -0.7829   -2.5110    0.8369 H         1 <0>         0.0871
     40 H6         -1.8626   -1.0962    0.8089 H         1 <0>         0.0868
     41 H7         -1.7749   -1.0783   -1.6692 H         1 <0>         0.0898
     42 H8         -0.6952   -2.4932   -1.6412 H         1 <0>         0.0896
     43 H9         -2.4526   -3.8114   -0.4911 H         1 <0>         0.1323
     44 H10        -3.5322   -2.3966   -0.5191 H         1 <0>         0.1306
     45 H11        -4.4948   -1.6592   -2.5761 H         1 <0>         0.1285
     46 H12        -2.8288   -1.3177   -3.0997 H         1 <0>         0.1310
     47 H13        -4.3508   -1.5233   -5.0473 H         1 <0>         0.1117
     48 H14        -3.1329   -2.8224   -5.0481 H         1 <0>         0.0872
     49 H15        -6.0084   -3.0443   -4.0439 H         1 <0>         0.0817
     50 H16        -5.3554   -3.7635   -5.5371 H         1 <0>         0.0941
     51 H17        -5.4596   -5.4145   -3.6580 H         1 <0>         0.1122
     52 H18        -3.7928   -5.1387   -4.2211 H         1 <0>         0.0874
     53 H19        -3.9110   -5.1161   -1.7435 H         1 <0>         0.1299
     54 H20        -5.1041   -3.7977   -1.8126 H         1 <0>         0.1281
     55 H21         4.2808    1.5447   -2.7194 H         1 <0>         0.1265
     56 H22         5.7885    0.9140   -4.5230 H         1 <0>         0.1386
     57 H23         8.7532   -0.2875   -1.6945 H         1 <0>         0.1431
     58 H24         5.4739   -0.5926    3.4168 H         1 <0>         0.1344
     59 H25         4.5416   -0.1768    5.6521 H         1 <0>         0.1383
     60 H26         3.2806    3.7188    4.4163 H         1 <0>         0.1376
     61 H27         4.2174    3.3211    2.1796 H         1 <0>         0.1331
     62 H28         3.9670    2.4212    7.0269 H         1 <0>         0.3986
     63 H29         8.7737    0.6403   -4.5526 H         1 <0>         0.3997
     64 H30        -2.3825   -3.6685   -2.9003 H         1 <0>         0.4222
@<TRIPOS>BOND
     1    1    6 ar
     2    1    2 ar
     3    1   35 1
     4    2    3 ar
     5    2   36 1
     6    3    4 ar
     7    3   16 1
     8    4    5 ar
     9    4   37 1
    10    5    6 ar
    11    5   38 1
    12    6    7 1
    13    7    8 1
    14    7   39 1
    15    7   40 1
    16    8    9 1
    17    8   41 1
    18    8   42 1
    19    9   10 1
    20    9   43 1
    21    9   44 1
    22   10   15 1
    23   10   11 1
    24   10   64 1
    25   11   12 1
    26   11   45 1
    27   11   46 1
    28   12   13 1
    29   12   47 1
    30   12   48 1
    31   13   14 1
    32   13   49 1
    33   13   50 1
    34   14   15 1
    35   14   51 1
    36   14   52 1
    37   15   53 1
    38   15   54 1
    39   16   17 2
    40   16   18 1
    41   18   26 2
    42   18   19 1
    43   19   24 ar
    44   19   20 ar
    45   20   21 ar
    46   20   55 1
    47   21   22 ar
    48   21   56 1
    49   22   23 ar
    50   22   34 1
    51   23   24 ar
    52   23   57 1
    53   24   25 1
    54   25   26 1
    55   26   27 1
    56   27   32 ar
    57   27   28 ar
    58   28   29 ar
    59   28   58 1
    60   29   30 ar
    61   29   59 1
    62   30   31 ar
    63   30   33 1
    64   31   32 ar
    65   31   60 1
    66   32   61 1
    67   33   62 1
    68   34   63 1
