@<TRIPOS>MOLECULE
CHEMBL30707
   28    31     0     0     0
SMALL
USER_CHARGES

@<TRIPOS>ATOM
      1 C1         -0.0168    1.3865    0.0097 C.ar      1 <0>        -0.1422
      2 C2          1.1655    2.0945    0.0022 C.ar      1 <0>        -0.0480
      3 C3          2.3794    1.4136   -0.0130 C.ar      1 <0>        -0.0767
      4 C4          2.4032    0.0097   -0.0207 C.ar      1 <0>         0.0701
      5 C5          1.2039   -0.6900   -0.0130 C.ar      1 <0>        -0.1279
      6 C6          0.0021   -0.0041    0.0020 C.ar      1 <0>         0.1404
      7 O1         -1.1687   -0.6946    0.0099 O.3       1 <0>        -0.4888
      8 O2          3.6933   -0.3914   -0.0352 O.3       1 <0>        -0.1609
      9 C7          4.5331    0.6547   -0.0376 C.2       1 <0>         0.1715
     10 C8          3.7907    1.8325   -0.0242 C.2       1 <0>        -0.2715
     11 C9          4.4536    3.0786   -0.0243 C.2       1 <0>         0.5517
     12 O3          3.7968    4.1038   -0.0126 O.2       1 <0>        -0.4475
     13 O4          5.7947    3.1560   -0.0366 O.3       1 <0>        -0.2632
     14 C10         6.5757    2.0537   -0.0500 C.ar      1 <0>         0.1830
     15 C11         5.9969    0.7723   -0.0506 C.ar      1 <0>        -0.1258
     16 C12         6.8087   -0.3647   -0.0649 C.ar      1 <0>        -0.0303
     17 C13         8.1680   -0.2294   -0.0772 C.ar      1 <0>        -0.1623
     18 C14         8.7487    1.0359   -0.0750 C.ar      1 <0>         0.1780
     19 C15         7.9577    2.1732   -0.0631 C.ar      1 <0>        -0.1609
     20 O5         10.1011    1.1562   -0.0864 O.3       1 <0>        -0.4883
     21 H1         -0.9598    1.9126    0.0260 H         1 <0>         0.1456
     22 H2          1.1502    3.1743    0.0077 H         1 <0>         0.1457
     23 H3          1.2089   -1.7699   -0.0192 H         1 <0>         0.1465
     24 H4         -1.5162   -0.8897   -0.8712 H         1 <0>         0.3985
     25 H5          6.3627   -1.3483   -0.0659 H         1 <0>         0.1498
     26 H6          8.7954   -1.1085   -0.0882 H         1 <0>         0.1489
     27 H7          8.4161    3.1511   -0.0619 H         1 <0>         0.1595
     28 H8         10.4850    1.1962   -0.9731 H         1 <0>         0.4050
@<TRIPOS>BOND
     1    1    6 ar
     2    1    2 ar
     3    1   21 1
     4    2    3 ar
     5    2   22 1
     6    3   10 1
     7    3    4 ar
     8    4    5 ar
     9    4    8 1
    10    5    6 ar
    11    5   23 1
    12    6    7 1
    13    7   24 1
    14    8    9 1
    15    9   15 1
    16    9   10 2
    17   10   11 1
    18   11   12 2
    19   11   13 1
    20   13   14 1
    21   14   19 ar
    22   14   15 ar
    23   15   16 ar
    24   16   17 ar
    25   16   25 1
    26   17   18 ar
    27   17   26 1
    28   18   19 ar
    29   18   20 1
    30   19   27 1
    31   20   28 1
