@<TRIPOS>MOLECULE
CHEMBL245378
   52    56     0     0     0
SMALL
USER_CHARGES

@<TRIPOS>ATOM
      1 C1         -0.0187    1.5258    0.0104 C.3       1 <0>        -0.1329
      2 C2          0.0021   -0.0041    0.0020 C.3       1 <0>        -0.0575
      3 C3         -1.4161   -0.5355    0.0648 C.3       1 <0>        -0.1034
      4 C4         -2.0852    0.0905    1.3006 C.3       1 <0>        -0.1146
      5 C5         -1.3035   -0.2231    2.5710 C.3       1 <0>        -0.0652
      6 H1         -1.3067   -1.3058    2.6973 H         1 <0>         0.0636
      7 C6          0.1592    0.2227    2.4640 C.3       1 <0>        -0.0700
      8 H2          0.2051    1.3019    2.3181 H         1 <0>         0.0852
      9 C7          0.7521   -0.5252    1.2582 C.3       1 <0>        -0.0827
     10 H3          0.6170   -1.6015    1.3645 H         1 <0>         0.0771
     11 C8          2.2059   -0.1836    0.9136 C.3       1 <0>        -0.1132
     12 C9          2.3064   -0.5657   -0.5885 C.3       1 <0>        -0.1571
     13 C10         0.8652   -0.5010   -1.1528 C.3       1 <0>         0.1101
     14 H4          0.5387   -1.4916   -1.4693 H         1 <0>         0.0564
     15 O1          0.8028    0.4153   -2.2476 O.3       1 <0>        -0.5598
     16 C11         0.8988   -0.1573    3.7531 C.3       1 <0>        -0.0821
     17 C12         0.2728    0.6440    4.8784 C.2       1 <0>        -0.1397
     18 C13        -0.9985    0.8835    4.8076 C.2       1 <0>        -0.1140
     19 C14        -1.9670    0.3755    3.7861 C.3       1 <0>        -0.0244
     20 C15        -2.8025    1.6270    3.4657 C.3       1 <0>        -0.1142
     21 C16        -2.7324    2.4935    4.7441 C.3       1 <0>        -0.1189
     22 C17        -1.8796    1.7253    5.7145 C.3       1 <0>        -0.0495
     23 H5         -1.3034    2.3999    6.3478 H         1 <0>         0.0857
     24 C18        -2.7702    0.7637    6.5180 C.3       1 <0>         0.1153
     25 H6         -2.1458    0.0408    7.0430 H         1 <0>         0.0544
     26 C19        -3.7055    0.0286    5.5545 C.3       1 <0>        -0.1549
     27 C20        -2.8787   -0.6518    4.4730 C.3       1 <0>        -0.0993
     28 O2         -3.5423    1.5053    7.4646 O.3       1 <0>        -0.5667
     29 H7          1.0039    1.9031    0.0027 H         1 <0>         0.0537
     30 H8         -0.5459    1.8868   -0.8726 H         1 <0>         0.0587
     31 H9         -0.5289    1.8773    0.9072 H         1 <0>         0.0602
     32 H10        -1.9595   -0.2495   -0.8358 H         1 <0>         0.0660
     33 H11        -1.4014   -1.6211    0.1610 H         1 <0>         0.0613
     34 H12        -2.1357    1.1715    1.1702 H         1 <0>         0.0721
     35 H13        -3.0967   -0.3040    1.3973 H         1 <0>         0.0614
     36 H14         2.3959    0.8804    1.0544 H         1 <0>         0.0709
     37 H15         2.8945   -0.7817    1.5105 H         1 <0>         0.0661
     38 H16         2.9459    0.1442   -1.1131 H         1 <0>         0.0723
     39 H17         2.7038   -1.5754   -0.6919 H         1 <0>         0.0665
     40 H18         1.3328    0.1513   -3.0121 H         1 <0>         0.3747
     41 H19         0.7833   -1.2236    3.9473 H         1 <0>         0.0721
     42 H20         1.9559    0.0925    3.6624 H         1 <0>         0.0734
     43 H21         0.8647    1.0014    5.7081 H         1 <0>         0.1168
     44 H22        -2.3719    2.1636    2.6203 H         1 <0>         0.0694
     45 H23        -3.8347    1.3489    3.2527 H         1 <0>         0.0669
     46 H24        -2.2955    3.4658    4.5162 H         1 <0>         0.0654
     47 H25        -3.7283    2.6182    5.1693 H         1 <0>         0.0726
     48 H26        -4.2802   -0.7160    6.1052 H         1 <0>         0.0646
     49 H27        -4.3879    0.7441    5.0956 H         1 <0>         0.0782
     50 H28        -3.5646   -1.0779    3.7408 H         1 <0>         0.0669
     51 H29        -2.2710   -1.4441    4.9101 H         1 <0>         0.0644
     52 H30        -4.1284    0.9602    8.0073 H         1 <0>         0.3779
@<TRIPOS>BOND
     1    1    2 1
     2    1   29 1
     3    1   30 1
     4    1   31 1
     5    2    9 1
     6    2   13 1
     7    2    3 1
     8    3    4 1
     9    3   32 1
    10    3   33 1
    11    4    5 1
    12    4   34 1
    13    4   35 1
    14    5    6 1
    15    5   19 1
    16    5    7 1
    17    7    8 1
    18    7    9 1
    19    7   16 1
    20    9   10 1
    21    9   11 1
    22   11   12 1
    23   11   36 1
    24   11   37 1
    25   12   13 1
    26   12   38 1
    27   12   39 1
    28   13   14 1
    29   13   15 1
    30   15   40 1
    31   16   17 1
    32   16   41 1
    33   16   42 1
    34   17   18 2
    35   17   43 1
    36   18   22 1
    37   18   19 1
    38   19   27 1
    39   19   20 1
    40   20   21 1
    41   20   44 1
    42   20   45 1
    43   21   22 1
    44   21   46 1
    45   21   47 1
    46   22   23 1
    47   22   24 1
    48   24   25 1
    49   24   26 1
    50   24   28 1
    51   26   27 1
    52   26   48 1
    53   26   49 1
    54   27   50 1
    55   27   51 1
    56   28   52 1
