@<TRIPOS>MOLECULE
CHEMBL80124
   36    39     0     0     0
SMALL
USER_CHARGES

@<TRIPOS>ATOM
      1 C1         -0.0187    1.5258    0.0104 C.3       1 <0>        -0.1508
      2 C2          0.0021   -0.0041    0.0020 C.3       1 <0>        -0.0628
      3 C3         -1.4117   -0.5257    0.0127 C.ar      1 <0>        -0.0835
      4 C4         -2.2182   -0.8269    1.2067 C.ar      1 <0>         0.1088
      5 C5         -2.0805   -0.7805    2.5144 C.ar      1 <0>        -0.1098
      6 C6         -3.2043   -1.1977    3.3799 C.ar      1 <0>        -0.1410
      7 C7         -4.3553   -1.6207    2.8712 C.ar      1 <0>         0.1399
      8 C8         -4.4619   -1.6549    1.3993 C.ar      1 <0>         0.0719
      9 N1         -3.3842   -1.2551    0.7400 N.pl3     1 <0>        -0.3913
     10 C9         -3.4681   -1.2816   -0.5855 C.ar      1 <0>         0.0290
     11 C10        -2.1600   -0.7922   -1.0566 C.ar      1 <0>         0.0021
     12 C11        -1.7513   -0.6290   -2.4623 C.ar      1 <0>        -0.0436
     13 C12        -1.4762    0.6316   -2.9591 C.ar      1 <0>        -0.0815
     14 C13        -1.0932    0.7874   -4.2772 C.ar      1 <0>        -0.1440
     15 C14        -0.9841   -0.3225   -5.1025 C.ar      1 <0>         0.1144
     16 C15        -1.2602   -1.5863   -4.6014 C.ar      1 <0>        -0.1433
     17 C16        -1.6379   -1.7373   -3.2811 C.ar      1 <0>        -0.0790
     18 O1         -0.6079   -0.1718   -6.3996 O.3       1 <0>        -0.4987
     19 C17        -4.6819   -1.7280   -0.8366 C.ar      1 <0>        -0.1188
     20 C18        -5.3380   -1.9745    0.4779 C.ar      1 <0>        -0.1956
     21 O2         -5.3892   -2.0054    3.6700 O.3       1 <0>        -0.4782
     22 H1          1.0039    1.9031    0.0027 H         1 <0>         0.0649
     23 H2         -0.5459    1.8868   -0.8726 H         1 <0>         0.0587
     24 H3         -0.5289    1.8773    0.9072 H         1 <0>         0.0571
     25 H4          0.5123   -0.3556   -0.8948 H         1 <0>         0.0823
     26 H5          0.5293   -0.3651    0.8851 H         1 <0>         0.0793
     27 H6         -1.1536   -0.4407    2.9522 H         1 <0>         0.1494
     28 H7         -3.0857   -1.1577    4.4526 H         1 <0>         0.1450
     29 H8         -1.5613    1.4953   -2.3163 H         1 <0>         0.1303
     30 H9         -0.8791    1.7723   -4.6651 H         1 <0>         0.1334
     31 H10        -1.1760   -2.4519   -5.2418 H         1 <0>         0.1335
     32 H11        -1.8487   -2.7214   -2.8894 H         1 <0>         0.1294
     33 H12         0.3477   -0.2197   -6.5401 H         1 <0>         0.3935
     34 H13        -5.1189   -1.8854   -1.8116 H         1 <0>         0.1492
     35 H14        -6.3394   -2.3449    0.6401 H         1 <0>         0.1526
     36 H15        -5.9937   -1.2878    3.9038 H         1 <0>         0.3970
@<TRIPOS>BOND
     1    1    2 1
     2    1   22 1
     3    1   23 1
     4    1   24 1
     5    2    3 1
     6    2   25 1
     7    2   26 1
     8    3   11 ar
     9    3    4 ar
    10    4    9 1
    11    4    5 ar
    12    5    6 ar
    13    5   27 1
    14    6    7 ar
    15    6   28 1
    16    7    8 ar
    17    7   21 1
    18    8   20 ar
    19    8    9 1
    20    9   10 1
    21   10   11 ar
    22   10   19 ar
    23   11   12 1
    24   12   17 ar
    25   12   13 ar
    26   13   14 ar
    27   13   29 1
    28   14   15 ar
    29   14   30 1
    30   15   16 ar
    31   15   18 1
    32   16   17 ar
    33   16   31 1
    34   17   32 1
    35   18   33 1
    36   19   20 ar
    37   19   34 1
    38   20   35 1
    39   21   36 1
