@<TRIPOS>MOLECULE
CHEMBL211666
   39    43     0     0     0
SMALL
USER_CHARGES

@<TRIPOS>ATOM
      1 C1          0.2416    1.4593    0.2423 C.ar      1 <0>        -0.0382
      2 C2          1.3929    2.1530    0.3528 C.ar      1 <0>        -0.1096
      3 C3          2.6291    1.4685    0.4115 C.ar      1 <0>         0.1274
      4 C4          2.6266   -0.0031    0.3784 C.ar      1 <0>        -0.2065
      5 C5          3.9539   -0.3969    0.4519 C.2       1 <0>         0.1062
      6 N1          4.7057    0.7084    0.5221 N.pl3     1 <0>        -0.4200
      7 N2          3.8901    1.8450    0.4963 N.2       1 <0>        -0.3024
      8 H1          5.6738    0.7197    0.5823 H         1 <0>         0.4479
      9 C6          1.4003   -0.6836    0.2861 C.ar      1 <0>         0.0351
     10 C7          0.2205    0.0432    0.1764 C.ar      1 <0>        -0.1420
     11 C8         -0.8932   -0.8820   -0.0490 C.2       1 <0>         0.0736
     12 C9         -2.0909   -0.6633   -0.6354 C.2       1 <0>        -0.2172
     13 C10        -2.9649   -1.7549   -0.8219 C.2       1 <0>         0.3954
     14 O1         -4.0465   -1.5716   -1.3439 O.2       1 <0>        -0.4471
     15 C11        -2.5802   -3.1422   -0.3848 C.3       1 <0>        -0.1584
     16 C12        -1.0568   -3.3095   -0.3972 C.3       1 <0>        -0.1066
     17 C13        -0.4458   -2.2289    0.4986 C.3       1 <0>        -0.0320
     18 C14         1.0808   -2.1647    0.3192 C.3       1 <0>        -0.0817
     19 C15        -0.8571   -2.4122    1.9608 C.3       1 <0>        -0.0684
     20 C16        -0.4145   -3.7941    2.4457 C.3       1 <0>        -0.1523
     21 C17        -1.5076   -4.7803    2.8621 C.3       1 <0>        -0.1793
     22 C18        -0.6239   -4.1243    3.9249 C.3       1 <0>        -0.1789
     23 Br1        -2.5863    1.0737   -1.1951 Br        1 <0>        -0.0259
     24 H2         -0.6933    1.9989    0.2075 H         1 <0>         0.1356
     25 H3          1.3708    3.2319    0.3961 H         1 <0>         0.1363
     26 H4          4.3166   -1.4142    0.4530 H         1 <0>         0.1934
     27 H5         -2.9526   -3.3169    0.6246 H         1 <0>         0.1057
     28 H6         -3.0271   -3.8693   -1.0628 H         1 <0>         0.1024
     29 H7         -0.7926   -4.2956   -0.0154 H         1 <0>         0.0918
     30 H8         -0.6834   -3.1971   -1.4151 H         1 <0>         0.0768
     31 H9          1.3737   -2.6377   -0.6181 H         1 <0>         0.0995
     32 H10         1.5825   -2.6430    1.1604 H         1 <0>         0.0983
     33 H11        -0.3822   -1.6438    2.5709 H         1 <0>         0.0782
     34 H12        -1.9403   -2.3266    2.0470 H         1 <0>         0.0749
     35 H13         0.4724   -4.2010    1.9599 H         1 <0>         0.1091
     36 H14        -2.5422   -4.4446    2.7905 H         1 <0>         0.0945
     37 H15        -1.3402   -5.8363    2.6500 H         1 <0>         0.0953
     38 H16         0.1249   -4.7488    4.4121 H         1 <0>         0.0949
     39 H17        -1.0771   -3.3570    4.5526 H         1 <0>         0.0944
@<TRIPOS>BOND
     1    1   10 ar
     2    1    2 ar
     3    1   24 1
     4    2    3 ar
     5    2   25 1
     6    3    4 ar
     7    3    7 2
     8    4    9 ar
     9    4    5 2
    10    5   26 1
    11    5    6 1
    12    6    8 1
    13    6    7 1
    14    9   18 1
    15    9   10 ar
    16   10   11 1
    17   11   17 1
    18   11   12 2
    19   12   13 1
    20   12   23 1
    21   13   14 2
    22   13   15 1
    23   15   16 1
    24   15   27 1
    25   15   28 1
    26   16   17 1
    27   16   29 1
    28   16   30 1
    29   17   18 1
    30   17   19 1
    31   18   31 1
    32   18   32 1
    33   19   20 1
    34   19   33 1
    35   19   34 1
    36   20   22 1
    37   20   21 1
    38   20   35 1
    39   21   22 1
    40   21   36 1
    41   21   37 1
    42   22   38 1
    43   22   39 1
