@<TRIPOS>MOLECULE
CHEMBL93207
   45    48     0     0     0
SMALL
USER_CHARGES

@<TRIPOS>ATOM
      1 C1         -0.0130    1.3835    0.0752 C.ar      1 <0>        -0.0938
      2 C2          1.0245    1.8714   -0.6994 C.ar      1 <0>        -0.1244
      3 C3          2.2316    1.2046   -0.7402 C.ar      1 <0>        -0.0625
      4 C4          2.4048    0.0354    0.0021 C.ar      1 <0>        -0.1343
      5 C5          1.3541   -0.4514    0.7814 C.ar      1 <0>        -0.0958
      6 C6          0.1522    0.2250    0.8133 C.ar      1 <0>        -0.1260
      7 C7          3.6955   -0.6847   -0.0372 C.2       1 <0>         0.5674
      8 O1          4.7342   -0.0643   -0.1547 O.2       1 <0>        -0.5267
      9 N1          3.7204   -2.0289    0.0571 N.am      1 <0>        -0.6093
     10 C8          2.4828   -2.8162    0.0622 C.3       1 <0>         0.1400
     11 C9          2.6370   -4.0111   -0.8451 C.ar      1 <0>        -0.0791
     12 C10         1.4963   -4.7365   -1.1578 C.ar      1 <0>        -0.1395
     13 C11         1.5749   -5.8493   -1.9779 C.ar      1 <0>         0.1100
     14 C12         2.8052   -6.2398   -2.4872 C.ar      1 <0>        -0.1415
     15 C13         3.9354   -5.5147   -2.1772 C.ar      1 <0>        -0.0897
     16 C14         3.8561   -4.3936   -1.3589 C.ar      1 <0>        -0.0715
     17 C15         5.1301   -3.6371   -1.0881 C.3       1 <0>        -0.0194
     18 C16         4.9911   -2.7663    0.1529 C.3       1 <0>         0.1207
     19 C17         6.2554   -4.6185   -0.8840 C.ar      1 <0>        -0.0870
     20 C18         6.1840   -5.5476    0.1375 C.ar      1 <0>        -0.0890
     21 C19         7.2145   -6.4480    0.3270 C.ar      1 <0>        -0.1419
     22 C20         8.3213   -6.4197   -0.5089 C.ar      1 <0>         0.1069
     23 C21         8.3903   -5.4867   -1.5333 C.ar      1 <0>        -0.1423
     24 C22         7.3549   -4.5919   -1.7219 C.ar      1 <0>        -0.0942
     25 O2          9.3365   -7.3041   -0.3242 O.3       1 <0>        -0.4997
     26 O3          0.4540   -6.5551   -2.2818 O.3       1 <0>        -0.4981
     27 H1         -0.9544    1.9118    0.1072 H         1 <0>         0.1288
     28 H2          0.8890    2.7760   -1.2736 H         1 <0>         0.1313
     29 H3          3.0405    1.5863   -1.3455 H         1 <0>         0.1328
     30 H4          1.4817   -1.3558    1.3578 H         1 <0>         0.1329
     31 H5         -0.6616   -0.1506    1.4159 H         1 <0>         0.1308
     32 H6          2.2731   -3.1557    1.0766 H         1 <0>         0.0874
     33 H7          1.6577   -2.1973   -0.2902 H         1 <0>         0.1082
     34 H8          0.5403   -4.4308   -0.7590 H         1 <0>         0.1318
     35 H9          2.8768   -7.1091   -3.1240 H         1 <0>         0.1300
     36 H10         4.8922   -5.8206   -2.5737 H         1 <0>         0.1276
     37 H11         5.3595   -3.0030   -1.9445 H         1 <0>         0.0969
     38 H12         5.8226   -2.0633    0.2021 H         1 <0>         0.1037
     39 H13         4.9861   -3.3954    1.0431 H         1 <0>         0.0803
     40 H14         5.3221   -5.5693    0.7879 H         1 <0>         0.1253
     41 H15         7.1586   -7.1732    1.1254 H         1 <0>         0.1296
     42 H16         9.2510   -5.4627   -2.1853 H         1 <0>         0.1304
     43 H17         7.4061   -3.8683   -2.5220 H         1 <0>         0.1285
     44 H18         9.2329   -8.1301   -0.8163 H         1 <0>         0.3919
     45 H19        -0.0011   -6.2470   -3.0774 H         1 <0>         0.3925
@<TRIPOS>BOND
     1    1    6 ar
     2    1    2 ar
     3    1   27 1
     4    2    3 ar
     5    2   28 1
     6    3    4 ar
     7    3   29 1
     8    4    5 ar
     9    4    7 1
    10    5    6 ar
    11    5   30 1
    12    6   31 1
    13    7    8 2
    14    7    9 am
    15    9   18 1
    16    9   10 1
    17   10   11 1
    18   10   32 1
    19   10   33 1
    20   11   16 ar
    21   11   12 ar
    22   12   13 ar
    23   12   34 1
    24   13   14 ar
    25   13   26 1
    26   14   15 ar
    27   14   35 1
    28   15   16 ar
    29   15   36 1
    30   16   17 1
    31   17   18 1
    32   17   19 1
    33   17   37 1
    34   18   38 1
    35   18   39 1
    36   19   24 ar
    37   19   20 ar
    38   20   21 ar
    39   20   40 1
    40   21   22 ar
    41   21   41 1
    42   22   23 ar
    43   22   25 1
    44   23   24 ar
    45   23   42 1
    46   24   43 1
    47   25   44 1
    48   26   45 1
