@<TRIPOS>MOLECULE
CHEMBL220609
   64    68     0     0     0
SMALL
USER_CHARGES

@<TRIPOS>ATOM
      1 C1         -0.3115    1.4293   -0.0989 C.ar      1 <0>        -0.0789
      2 C2          0.9189    2.0521   -0.1144 C.ar      1 <0>        -0.1435
      3 C3          2.0811    1.2955   -0.1753 C.ar      1 <0>         0.1167
      4 C4          2.0100   -0.0900   -0.2208 C.ar      1 <0>        -0.1403
      5 C5          0.7833   -0.7201   -0.2057 C.ar      1 <0>        -0.0765
      6 C6         -0.3871    0.0369   -0.1446 C.ar      1 <0>        -0.0252
      7 C7         -1.7060   -0.6357   -0.1277 C.2       1 <0>        -0.1300
      8 C8         -2.6391   -0.6193    0.9267 C.2       1 <0>         0.1715
      9 N1         -3.6910   -1.3314    0.5681 N.2       1 <0>        -0.2621
     10 N2         -3.4865   -1.8347   -0.7214 N.pl3     1 <0>        -0.2876
     11 C9         -2.2609   -1.4014   -1.1588 C.2       1 <0>         0.2625
     12 N3         -1.8139   -1.7359   -2.3740 N.2       1 <0>        -0.3658
     13 C10        -2.5377   -2.4823   -3.1760 C.2       1 <0>         0.1183
     14 C11        -3.7973   -2.9419   -2.7669 C.2       1 <0>        -0.1236
     15 C12        -4.2573   -2.6161   -1.5338 C.2       1 <0>         0.1062
     16 C13        -5.6091   -3.0963   -1.0721 C.3       1 <0>         0.5277
     17 F1         -6.1960   -3.8733   -2.0765 F         1 <0>        -0.1503
     18 F2         -5.4598   -3.8666    0.0862 F         1 <0>        -0.1520
     19 F3         -6.4264   -1.9946   -0.7973 F         1 <0>        -0.1531
     20 C14        -2.0127   -2.8456   -4.5411 C.3       1 <0>         0.5313
     21 F4         -0.7476   -2.2761   -4.7209 F         1 <0>        -0.1488
     22 F5         -1.9172   -4.2372   -4.6487 F         1 <0>        -0.1558
     23 F6         -2.8859   -2.3609   -5.5207 F         1 <0>        -0.1559
     24 C15        -2.4686    0.0806    2.2227 C.ar      1 <0>        -0.0473
     25 C16        -1.2062    0.1695    2.8078 C.ar      1 <0>        -0.0374
     26 C17        -1.0509    0.8211    4.0132 C.ar      1 <0>        -0.1396
     27 C18        -2.1500    1.3882    4.6440 C.ar      1 <0>         0.1328
     28 C19        -3.4084    1.3014    4.0639 C.ar      1 <0>        -0.2039
     29 C20        -3.5693    0.6562    2.8559 C.ar      1 <0>        -0.0389
     30 O1         -1.9938    2.0291    5.8319 O.3       1 <0>        -0.3256
     31 C21        -3.1665    2.5895    6.4258 C.3       1 <0>         0.0237
     32 C22        -2.7958    3.2650    7.7476 C.3       1 <0>        -0.0011
     33 N4         -1.8857    4.3879    7.4853 N.4       1 <0>        -0.3842
     34 C23        -1.4081    4.9367    8.7601 C.3       1 <0>        -0.0072
     35 C24        -0.3972    6.0538    8.4921 C.3       1 <0>        -0.1466
     36 C25        -1.0727    7.1616    7.6787 C.3       1 <0>        -0.1393
     37 C26        -1.6323    6.5627    6.3852 C.3       1 <0>        -0.1453
     38 C27        -2.5974    5.4268    6.7312 C.3       1 <0>        -0.0134
     39 O2          3.2921    1.9130   -0.1908 O.3       1 <0>        -0.4967
     40 H1         -1.2151    2.0185   -0.0471 H         1 <0>         0.1252
     41 H2          0.9783    3.1299   -0.0794 H         1 <0>         0.1317
     42 H3          2.9164   -0.6753   -0.2685 H         1 <0>         0.1348
     43 H4          0.7287   -1.7982   -0.2415 H         1 <0>         0.1272
     44 H5         -4.3934   -3.5559   -3.4258 H         1 <0>         0.1984
     45 H6         -0.3510   -0.2718    2.3177 H         1 <0>         0.1429
     46 H7         -0.0734    0.8899    4.4671 H         1 <0>         0.1408
     47 H8         -4.2614    1.7436    4.5571 H         1 <0>         0.1346
     48 H9         -4.5477    0.5928    2.4030 H         1 <0>         0.1382
     49 H10        -3.5993    3.3270    5.7497 H         1 <0>         0.0883
     50 H11        -3.8925    1.7983    6.6131 H         1 <0>         0.1116
     51 H12        -3.6992    3.6351    8.2324 H         1 <0>         0.1497
     52 H13        -2.3036    2.5429    8.3991 H         1 <0>         0.1433
     53 H14        -2.2519    5.3379    9.3214 H         1 <0>         0.1293
     54 H15        -0.9305    4.1464    9.3393 H         1 <0>         0.1313
     55 H16        -0.0451    6.4611    9.4399 H         1 <0>         0.1131
     56 H17         0.4473    5.6536    7.9311 H         1 <0>         0.0881
     57 H18        -1.8853    7.5970    8.2603 H         1 <0>         0.0821
     58 H19        -0.3419    7.9334    7.4368 H         1 <0>         0.0948
     59 H20        -2.1631    7.3339    5.8269 H         1 <0>         0.1123
     60 H21        -0.8135    6.1731    5.7804 H         1 <0>         0.0881
     61 H22        -2.9979    4.9983    5.8125 H         1 <0>         0.1274
     62 H23        -3.4159    5.8175    7.3358 H         1 <0>         0.1303
     63 H24         3.6691    2.0616    0.6872 H         1 <0>         0.3920
     64 H25        -1.0980    4.0620    6.9455 H         1 <0>         0.4292
@<TRIPOS>BOND
     1    1    6 ar
     2    1    2 ar
     3    1   40 1
     4    2    3 ar
     5    2   41 1
     6    3    4 ar
     7    3   39 1
     8    4    5 ar
     9    4   42 1
    10    5    6 ar
    11    5   43 1
    12    6    7 1
    13    7   11 2
    14    7    8 1
    15    8    9 2
    16    8   24 1
    17    9   10 1
    18   10   15 1
    19   10   11 1
    20   11   12 1
    21   12   13 2
    22   13   14 1
    23   13   20 1
    24   14   15 2
    25   14   44 1
    26   15   16 1
    27   16   17 1
    28   16   18 1
    29   16   19 1
    30   20   21 1
    31   20   22 1
    32   20   23 1
    33   24   29 ar
    34   24   25 ar
    35   25   26 ar
    36   25   45 1
    37   26   27 ar
    38   26   46 1
    39   27   28 ar
    40   27   30 1
    41   28   29 ar
    42   28   47 1
    43   29   48 1
    44   30   31 1
    45   31   32 1
    46   31   49 1
    47   31   50 1
    48   32   33 1
    49   32   51 1
    50   32   52 1
    51   33   38 1
    52   33   34 1
    53   33   64 1
    54   34   35 1
    55   34   53 1
    56   34   54 1
    57   35   36 1
    58   35   55 1
    59   35   56 1
    60   36   37 1
    61   36   57 1
    62   36   58 1
    63   37   38 1
    64   37   59 1
    65   37   60 1
    66   38   61 1
    67   38   62 1
    68   39   63 1
