@<TRIPOS>MOLECULE
CHEMBL42018
   60    64     0     0     0
SMALL
USER_CHARGES

@<TRIPOS>ATOM
      1 C1          0.2587    1.2179    0.8050 C.ar      1 <0>        -0.0181
      2 C2          1.4022    1.9838    0.8501 C.ar      1 <0>        -0.1517
      3 C3          2.6481    1.3854    0.7024 C.ar      1 <0>         0.1502
      4 C4          2.7452    0.0124    0.5081 C.ar      1 <0>        -0.2136
      5 C5          1.6066   -0.7605    0.4617 C.ar      1 <0>        -0.0183
      6 C6          0.3521   -0.1628    0.6103 C.ar      1 <0>        -0.1890
      7 C7         -0.8715   -0.9880    0.5617 C.2       1 <0>         0.4583
      8 O1         -1.9663   -0.4564    0.6002 O.2       1 <0>        -0.4253
      9 C8         -0.7683   -2.4467    0.4672 C.2       1 <0>        -0.1501
     10 C9         -0.8087   -3.2849    1.6668 C.ar      1 <0>        -0.0782
     11 C10        -0.9416   -2.8779    3.0141 C.ar      1 <0>        -0.0577
     12 C11        -0.9609   -3.7916    4.0208 C.ar      1 <0>        -0.1364
     13 C12        -0.8513   -5.1556    3.7634 C.ar      1 <0>         0.1431
     14 C13        -0.7200   -5.5913    2.4548 C.ar      1 <0>        -0.1016
     15 C14        -0.6994   -4.6687    1.4294 C.ar      1 <0>        -0.0990
     16 S1         -0.5510   -4.8028   -0.3335 S.3       1 <0>         0.1125
     17 C15        -0.6352   -3.0753   -0.7620 C.2       1 <0>        -0.0713
     18 C16        -0.5752   -2.4606   -2.1031 C.ar      1 <0>         0.0238
     19 C17        -0.7799   -1.0856   -2.2748 C.ar      1 <0>        -0.1592
     20 C18        -0.7148   -0.5537   -3.5461 C.ar      1 <0>         0.1127
     21 N1         -0.4645   -1.3209   -4.5897 N.ar      1 <0>        -0.4736
     22 C19        -0.2657   -2.6197   -4.4730 C.ar      1 <0>         0.1119
     23 C20        -0.3063   -3.2350   -3.2389 C.ar      1 <0>        -0.1518
     24 O2         -0.8725   -6.0508    4.7860 O.3       1 <0>        -0.4904
     25 O3          3.7727    2.1438    0.7475 O.3       1 <0>        -0.3230
     26 C21         5.0230    1.4533    0.7025 C.3       1 <0>         0.0225
     27 C22         6.1677    2.4667    0.7634 C.3       1 <0>        -0.0011
     28 N2          6.1453    3.1533    2.0618 N.4       1 <0>        -0.3846
     29 C23         7.1413    4.2315    2.0608 C.3       1 <0>        -0.0072
     30 C24         7.0663    5.0017    3.3809 C.3       1 <0>        -0.1467
     31 C25         7.3500    4.0436    4.5414 C.3       1 <0>        -0.1391
     32 C26         6.3515    2.8837    4.4886 C.3       1 <0>        -0.1454
     33 C27         6.4530    2.1920    3.1275 C.3       1 <0>        -0.0138
     34 H1         -0.7087    1.6830    0.9243 H         1 <0>         0.1499
     35 H2          1.3309    3.0510    1.0002 H         1 <0>         0.1432
     36 H3          3.7151   -0.4486    0.3930 H         1 <0>         0.1356
     37 H4          1.6829   -1.8271    0.3104 H         1 <0>         0.1364
     38 H5         -1.0287   -1.8269    3.2469 H         1 <0>         0.1281
     39 H6         -1.0628   -3.4523    5.0410 H         1 <0>         0.1402
     40 H7         -0.6336   -6.6460    2.2390 H         1 <0>         0.1451
     41 H8         -0.9859   -0.4516   -1.4251 H         1 <0>         0.1351
     42 H9         -0.8711    0.5053   -3.6889 H         1 <0>         0.1631
     43 H10        -0.0639   -3.2089   -5.3554 H         1 <0>         0.1670
     44 H11        -0.1376   -4.2980   -3.1503 H         1 <0>         0.1419
     45 H12        -1.7575   -6.3674    5.0132 H         1 <0>         0.4014
     46 H13         5.0937    0.7739    1.5519 H         1 <0>         0.0896
     47 H14         5.0906    0.8841   -0.2246 H         1 <0>         0.1124
     48 H15         7.1189    1.9481    0.6431 H         1 <0>         0.1506
     49 H16         6.0488    3.1977   -0.0363 H         1 <0>         0.1440
     50 H17         8.1378    3.8049    1.9457 H         1 <0>         0.1296
     51 H18         6.9400    4.9107    1.2324 H         1 <0>         0.1315
     52 H19         7.8078    5.8006    3.3788 H         1 <0>         0.1135
     53 H20         6.0703    5.4290    3.4968 H         1 <0>         0.0881
     54 H21         8.3647    3.6553    4.4537 H         1 <0>         0.0823
     55 H22         7.2422    4.5746    5.4871 H         1 <0>         0.0950
     56 H23         6.5821    2.1687    5.2783 H         1 <0>         0.1126
     57 H24         5.3406    3.2670    4.6276 H         1 <0>         0.0879
     58 H25         5.7435    1.3655    3.0866 H         1 <0>         0.1270
     59 H26         7.4641    1.8088    2.9896 H         1 <0>         0.1309
     60 H27         5.2287    3.5452    2.2181 H         1 <0>         0.4290
@<TRIPOS>BOND
     1    1    6 ar
     2    1    2 ar
     3    1   34 1
     4    2    3 ar
     5    2   35 1
     6    3    4 ar
     7    3   25 1
     8    4    5 ar
     9    4   36 1
    10    5    6 ar
    11    5   37 1
    12    6    7 1
    13    7    8 2
    14    7    9 1
    15    9   17 2
    16    9   10 1
    17   10   15 ar
    18   10   11 ar
    19   11   12 ar
    20   11   38 1
    21   12   13 ar
    22   12   39 1
    23   13   14 ar
    24   13   24 1
    25   14   15 ar
    26   14   40 1
    27   15   16 1
    28   16   17 1
    29   17   18 1
    30   18   23 ar
    31   18   19 ar
    32   19   20 ar
    33   19   41 1
    34   20   21 ar
    35   20   42 1
    36   21   22 ar
    37   22   23 ar
    38   22   43 1
    39   23   44 1
    40   24   45 1
    41   25   26 1
    42   26   27 1
    43   26   46 1
    44   26   47 1
    45   27   28 1
    46   27   48 1
    47   27   49 1
    48   28   33 1
    49   28   29 1
    50   28   60 1
    51   29   30 1
    52   29   50 1
    53   29   51 1
    54   30   31 1
    55   30   52 1
    56   30   53 1
    57   31   32 1
    58   31   54 1
    59   31   55 1
    60   32   33 1
    61   32   56 1
    62   32   57 1
    63   33   58 1
    64   33   59 1
