@<TRIPOS>MOLECULE
CHEMBL394213
   79    83     0     0     0
SMALL
USER_CHARGES

@<TRIPOS>ATOM
      1 C1         -0.2529    0.8008   -0.2668 C.3       1 <0>        -0.1651
      2 C2         -0.1354   -0.7237   -0.2130 C.3       1 <0>         0.1420
      3 H1          0.4073   -1.0775   -1.0897 H         1 <0>         0.0898
      4 C3         -1.5344   -1.3428   -0.1950 C.3       1 <0>        -0.1226
      5 C4         -1.4187   -2.8667   -0.2670 C.3       1 <0>        -0.0777
      6 C5         -2.7967   -3.4765   -0.2493 C.ar      1 <0>        -0.0941
      7 C6         -3.3911   -3.8041    0.9553 C.ar      1 <0>        -0.1009
      8 C7         -4.6540   -4.3636    0.9742 C.ar      1 <0>        -0.1429
      9 C8         -5.3262   -4.5963   -0.2169 C.ar      1 <0>         0.1024
     10 C9         -4.7278   -4.2663   -1.4242 C.ar      1 <0>        -0.1420
     11 C10        -3.4669   -3.7022   -1.4375 C.ar      1 <0>        -0.1002
     12 O1         -6.5685   -5.1470   -0.2009 O.3       1 <0>        -0.5002
     13 N1          0.5875   -1.1152    0.9996 N.am      1 <0>        -0.7270
     14 C11         1.9350   -1.1404    1.0023 C.2       1 <0>         0.5132
     15 O2          2.5492   -0.8389    0.0009 O.2       1 <0>        -0.5264
     16 C12         2.6786   -1.5432    2.2497 C.3       1 <0>        -0.0728
     17 C13         4.1620   -1.4888    1.9898 C.2       1 <0>        -0.1310
     18 C14         4.9970   -2.5769    1.4838 C.ar      1 <0>        -0.0520
     19 C15         4.7400   -3.9000    1.1075 C.ar      1 <0>        -0.0856
     20 C16         5.7605   -4.6909    0.6626 C.ar      1 <0>        -0.1093
     21 C17         7.0544   -4.1944    0.5799 C.ar      1 <0>        -0.1840
     22 C18         7.3331   -2.8912    0.9463 C.ar      1 <0>         0.1050
     23 C19         6.3045   -2.0658    1.4028 C.ar      1 <0>         0.0885
     24 N2          6.2635   -0.7559    1.8312 N.pl3     1 <0>        -0.5800
     25 H2          7.0275   -0.1601    1.8788 H         1 <0>         0.4156
     26 C20         4.9752   -0.4194    2.1754 C.2       1 <0>         0.1504
     27 C21         4.5434    0.9045    2.6736 C.ar      1 <0>        -0.0468
     28 C22         3.3837    1.4975    2.1728 C.ar      1 <0>        -0.0912
     29 C23         2.9861    2.7324    2.6422 C.ar      1 <0>        -0.1147
     30 C24         3.7345    3.3829    3.6069 C.ar      1 <0>        -0.1040
     31 C25         4.8855    2.8006    4.1072 C.ar      1 <0>        -0.1180
     32 C26         5.2907    1.5633    3.6508 C.ar      1 <0>        -0.1059
     33 O3          8.6039   -2.4153    0.8623 O.3       1 <0>        -0.3361
     34 C27         9.6045   -3.3178    0.3863 C.3       1 <0>         0.0288
     35 C28        10.9602   -2.6091    0.3613 C.3       1 <0>        -0.0016
     36 N3         11.3473   -2.2441    1.7306 N.4       1 <0>        -0.3838
     37 C29        12.5678   -1.4296    1.6917 C.3       1 <0>        -0.0076
     38 C30        12.9301   -0.9789    3.1085 C.3       1 <0>        -0.1463
     39 C31        13.1650   -2.2118    3.9860 C.3       1 <0>        -0.1389
     40 C32        11.9116   -3.0914    3.9595 C.3       1 <0>        -0.1451
     41 C33        11.5871   -3.4638    2.5112 C.3       1 <0>        -0.0134
     42 H3          0.7438    1.2418   -0.2796 H         1 <0>         0.0596
     43 H4         -0.7907    1.0921   -1.1691 H         1 <0>         0.0675
     44 H5         -0.7955    1.1546    0.6098 H         1 <0>         0.0584
     45 H6         -2.0449   -1.0603    0.7256 H         1 <0>         0.0720
     46 H7         -2.1030   -0.9807   -1.0516 H         1 <0>         0.0824
     47 H8         -0.9082   -3.1493   -1.1877 H         1 <0>         0.0738
     48 H9         -0.8502   -3.2288    0.5896 H         1 <0>         0.0728
     49 H10        -2.8674   -3.6227    1.8823 H         1 <0>         0.1249
     50 H11        -5.1175   -4.6199    1.9154 H         1 <0>         0.1288
     51 H12        -5.2491   -4.4465   -2.3528 H         1 <0>         0.1292
     52 H13        -3.0024   -3.4411   -2.3769 H         1 <0>         0.1262
     53 H14        -7.2851   -4.4996   -0.1524 H         1 <0>         0.3924
     54 H15         0.0963   -1.3563    1.8005 H         1 <0>         0.4003
     55 H16         2.4264   -0.8590    3.0599 H         1 <0>         0.1033
     56 H17         2.3957   -2.5579    2.5297 H         1 <0>         0.1044
     57 H18         3.7367   -4.2949    1.1691 H         1 <0>         0.1274
     58 H19         5.5594   -5.7116    0.3728 H         1 <0>         0.1308
     59 H20         7.8507   -4.8326    0.2264 H         1 <0>         0.1292
     60 H21         2.7990    0.9910    1.4192 H         1 <0>         0.1324
     61 H22         2.0888    3.1925    2.2554 H         1 <0>         0.1294
     62 H23         3.4192    4.3496    3.9708 H         1 <0>         0.1285
     63 H24         5.4658    3.3139    4.8597 H         1 <0>         0.1278
     64 H25         6.1867    1.1076    4.0456 H         1 <0>         0.1189
     65 H26         9.6585   -4.1822    1.0481 H         1 <0>         0.0869
     66 H27         9.3477   -3.6466   -0.6207 H         1 <0>         0.1100
     67 H28        11.7109   -3.2757   -0.0630 H         1 <0>         0.1494
     68 H29        10.8881   -1.7083   -0.2482 H         1 <0>         0.1413
     69 H30        13.3853   -2.0204    1.2786 H         1 <0>         0.1298
     70 H31        12.4001   -0.5542    1.0642 H         1 <0>         0.1303
     71 H32        13.8375   -0.3758    3.0777 H         1 <0>         0.1131
     72 H33        12.1132   -0.3878    3.5224 H         1 <0>         0.0867
     73 H34        14.0146   -2.7762    3.6017 H         1 <0>         0.0826
     74 H35        13.3679   -1.8972    5.0097 H         1 <0>         0.0945
     75 H36        12.0911   -3.9982    4.5370 H         1 <0>         0.1127
     76 H37        11.0736   -2.5441    4.3911 H         1 <0>         0.0868
     77 H38        10.6954   -4.0902    2.4887 H         1 <0>         0.1284
     78 H39        12.4256   -4.0112    2.0806 H         1 <0>         0.1307
     79 H40        10.6042   -1.7126    2.1587 H         1 <0>         0.4275
@<TRIPOS>BOND
     1    1    2 1
     2    1   42 1
     3    1   43 1
     4    1   44 1
     5    2    3 1
     6    2    4 1
     7    2   13 1
     8    4    5 1
     9    4   45 1
    10    4   46 1
    11    5    6 1
    12    5   47 1
    13    5   48 1
    14    6   11 ar
    15    6    7 ar
    16    7    8 ar
    17    7   49 1
    18    8    9 ar
    19    8   50 1
    20    9   10 ar
    21    9   12 1
    22   10   11 ar
    23   10   51 1
    24   11   52 1
    25   12   53 1
    26   13   14 am
    27   13   54 1
    28   14   15 2
    29   14   16 1
    30   16   17 1
    31   16   55 1
    32   16   56 1
    33   17   26 2
    34   17   18 1
    35   18   23 ar
    36   18   19 ar
    37   19   20 ar
    38   19   57 1
    39   20   21 ar
    40   20   58 1
    41   21   22 ar
    42   21   59 1
    43   22   23 ar
    44   22   33 1
    45   23   24 1
    46   24   25 1
    47   24   26 1
    48   26   27 1
    49   27   32 ar
    50   27   28 ar
    51   28   29 ar
    52   28   60 1
    53   29   30 ar
    54   29   61 1
    55   30   31 ar
    56   30   62 1
    57   31   32 ar
    58   31   63 1
    59   32   64 1
    60   33   34 1
    61   34   35 1
    62   34   65 1
    63   34   66 1
    64   35   36 1
    65   35   67 1
    66   35   68 1
    67   36   41 1
    68   36   37 1
    69   36   79 1
    70   37   38 1
    71   37   69 1
    72   37   70 1
    73   38   39 1
    74   38   71 1
    75   38   72 1
    76   39   40 1
    77   39   73 1
    78   39   74 1
    79   40   41 1
    80   40   75 1
    81   40   76 1
    82   41   77 1
    83   41   78 1
