@<TRIPOS>MOLECULE
CHEMBL144195
   45    47     0     0     0
SMALL
USER_CHARGES

@<TRIPOS>ATOM
      1 C1          0.2472    1.5703   -0.3714 C.ar      1 <0>        -0.1273
      2 C2          1.4928    2.1686   -0.4082 C.ar      1 <0>        -0.1203
      3 C3          2.6343    1.3950   -0.3110 C.ar      1 <0>        -0.1171
      4 C4          2.5302    0.0232   -0.1767 C.ar      1 <0>        -0.0742
      5 C5          1.2846   -0.5751   -0.1390 C.ar      1 <0>        -0.1087
      6 C6          0.1431    0.1984   -0.2376 C.ar      1 <0>        -0.1203
      7 C7          3.7747   -0.8203   -0.0718 C.3       1 <0>        -0.0742
      8 C8          4.1714   -0.9633    1.3989 C.3       1 <0>         0.0089
      9 C9          3.1048   -1.7332    2.1343 C.ar      1 <0>        -0.0647
     10 C10         2.5406   -1.2066    3.2815 C.ar      1 <0>        -0.0966
     11 C11         1.5630   -1.9106    3.9577 C.ar      1 <0>        -0.1415
     12 C12         1.1472   -3.1467    3.4845 C.ar      1 <0>         0.0953
     13 C13         1.7146   -3.6726    2.3329 C.ar      1 <0>        -0.1417
     14 C14         2.6881   -2.9623    1.6575 C.ar      1 <0>        -0.0992
     15 O1          0.1861   -3.8413    4.1482 O.3       1 <0>        -0.5005
     16 C15         5.4814   -1.7018    1.4963 C.ar      1 <0>        -0.1352
     17 C16         5.6424   -2.9105    0.8445 C.ar      1 <0>        -0.0742
     18 C17         6.8421   -3.5896    0.9326 C.ar      1 <0>        -0.1582
     19 C18         7.8861   -3.0577    1.6755 C.ar      1 <0>         0.1419
     20 C19         7.7221   -1.8446    2.3283 C.ar      1 <0>        -0.2152
     21 C20         6.5221   -1.1668    2.2328 C.ar      1 <0>        -0.0697
     22 O2          9.0671   -3.7241    1.7641 O.3       1 <0>        -0.2814
     23 C21        10.0976   -3.1170    2.5461 C.3       1 <0>        -0.0067
     24 C22        11.3236   -3.9931    2.5288 C.2       1 <0>         0.5009
     25 O3         11.3157   -5.0404    1.9045 O.co2     1 <0>        -0.6710
     26 O4         12.3234   -3.6546    3.1389 O.co2     1 <0>        -0.6876
     27 H1         -0.6447    2.1751   -0.4428 H         1 <0>         0.1171
     28 H2          1.5742    3.2404   -0.5131 H         1 <0>         0.1188
     29 H3          3.6075    1.8624   -0.3405 H         1 <0>         0.1211
     30 H4          1.2033   -1.6469   -0.0344 H         1 <0>         0.1197
     31 H5         -0.8301   -0.2691   -0.2085 H         1 <0>         0.1172
     32 H6          3.5817   -1.8066   -0.4937 H         1 <0>         0.0766
     33 H7          4.5851   -0.3420   -0.6219 H         1 <0>         0.0808
     34 H8          4.2779    0.0258    1.8444 H         1 <0>         0.0845
     35 H9          2.8646   -0.2443    3.6495 H         1 <0>         0.1228
     36 H10         1.1231   -1.4992    4.8542 H         1 <0>         0.1245
     37 H11         1.3926   -4.6346    1.9626 H         1 <0>         0.1262
     38 H12         3.1270   -3.3693    0.7585 H         1 <0>         0.1270
     39 H13        -0.7142   -3.6468    3.8534 H         1 <0>         0.3862
     40 H14         4.8294   -3.3241    0.2662 H         1 <0>         0.1220
     41 H15         6.9672   -4.5340    0.4238 H         1 <0>         0.1293
     42 H16         8.5333   -1.4284    2.9073 H         1 <0>         0.1277
     43 H17         6.3955   -0.2202    2.7371 H         1 <0>         0.1183
     44 H18        10.3429   -2.1404    2.1286 H         1 <0>         0.0593
     45 H19         9.7515   -2.9967    3.5727 H         1 <0>         0.0592
@<TRIPOS>BOND
     1    1    6 ar
     2    1    2 ar
     3    1   27 1
     4    2    3 ar
     5    2   28 1
     6    3    4 ar
     7    3   29 1
     8    4    5 ar
     9    4    7 1
    10    5    6 ar
    11    5   30 1
    12    6   31 1
    13    7    8 1
    14    7   32 1
    15    7   33 1
    16    8    9 1
    17    8   16 1
    18    8   34 1
    19    9   14 ar
    20    9   10 ar
    21   10   11 ar
    22   10   35 1
    23   11   12 ar
    24   11   36 1
    25   12   13 ar
    26   12   15 1
    27   13   14 ar
    28   13   37 1
    29   14   38 1
    30   15   39 1
    31   16   21 ar
    32   16   17 ar
    33   17   18 ar
    34   17   40 1
    35   18   19 ar
    36   18   41 1
    37   19   20 ar
    38   19   22 1
    39   20   21 ar
    40   20   42 1
    41   21   43 1
    42   22   23 1
    43   23   24 1
    44   23   44 1
    45   23   45 1
    46   24   25 2
    47   24   26 1
