@<TRIPOS>MOLECULE
CHEMBL204922
   31    33     0     0     0
SMALL
USER_CHARGES

@<TRIPOS>ATOM
      1 C1         -0.0184    1.5028    0.0103 C.3       1 <0>        -0.1226
      2 C2          0.0021   -0.0041    0.0020 C.ar      1 <0>        -0.0296
      3 C3          0.0060   -0.6974   -1.1978 C.ar      1 <0>         0.0958
      4 C4          0.0252   -2.0885   -1.2105 C.ar      1 <0>        -0.0962
      5 C5          0.0422   -2.8038   -0.0299 C.ar      1 <0>        -0.1045
      6 C6          0.0395   -2.1259    1.1805 C.ar      1 <0>        -0.0002
      7 C7          0.0230   -0.7118    1.1966 C.ar      1 <0>        -0.1658
      8 C8          0.0214   -0.0503    2.5141 C.2       1 <0>         0.5338
      9 O1          0.4499    1.0792    2.6531 O.2       1 <0>        -0.4238
     10 O2         -0.4753   -0.7468    3.5635 O.3       1 <0>        -0.2793
     11 C9         -0.1937   -2.0714    3.6461 C.ar      1 <0>         0.1414
     12 C10         0.0585   -2.8165    2.4845 C.ar      1 <0>        -0.1201
     13 C11         0.3357   -4.1781    2.5757 C.ar      1 <0>        -0.0572
     14 C12         0.3523   -4.7930    3.8090 C.ar      1 <0>        -0.1521
     15 C13         0.0932   -4.0571    4.9601 C.ar      1 <0>         0.1472
     16 C14        -0.1654   -2.7021    4.8799 C.ar      1 <0>        -0.1177
     17 C15        -0.4396   -1.9142    6.1349 C.3       1 <0>        -0.1074
     18 O3          0.1141   -4.6703    6.1720 O.3       1 <0>        -0.4871
     19 O4         -0.0097   -0.0129   -2.3719 O.3       1 <0>        -0.4886
     20 H1          1.0042    1.8801    0.0026 H         1 <0>         0.0838
     21 H2         -0.5455    1.8639   -0.8728 H         1 <0>         0.0803
     22 H3         -0.5286    1.8543    0.9071 H         1 <0>         0.0803
     23 H4          0.0266   -2.6142   -2.1539 H         1 <0>         0.1432
     24 H5          0.0571   -3.8835   -0.0485 H         1 <0>         0.1436
     25 H6          0.5368   -4.7508    1.6824 H         1 <0>         0.1427
     26 H7          0.5667   -5.8490    3.8816 H         1 <0>         0.1428
     27 H8         -1.5076   -1.9367    6.3519 H         1 <0>         0.0784
     28 H9          0.1096   -2.3541    6.9673 H         1 <0>         0.0737
     29 H10        -0.1193   -0.8820    5.9932 H         1 <0>         0.0736
     30 H11         0.9811   -4.6658    6.6002 H         1 <0>         0.3969
     31 H12         0.8691    0.1978   -2.7161 H         1 <0>         0.3947
@<TRIPOS>BOND
     1    1    2 1
     2    1   20 1
     3    1   21 1
     4    1   22 1
     5    2    7 ar
     6    2    3 ar
     7    3    4 ar
     8    3   19 1
     9    4    5 ar
    10    4   23 1
    11    5    6 ar
    12    5   24 1
    13    6   12 1
    14    6    7 ar
    15    7    8 1
    16    8    9 2
    17    8   10 1
    18   10   11 1
    19   11   16 ar
    20   11   12 ar
    21   12   13 ar
    22   13   14 ar
    23   13   25 1
    24   14   15 ar
    25   14   26 1
    26   15   16 ar
    27   15   18 1
    28   16   17 1
    29   17   27 1
    30   17   28 1
    31   17   29 1
    32   18   30 1
    33   19   31 1
