@<TRIPOS>MOLECULE
CHEMBL58714
   64    68     0     0     0
SMALL
USER_CHARGES

@<TRIPOS>ATOM
      1 C1         -0.1045    1.5019    0.0093 C.3       1 <0>        -0.1187
      2 C2         -0.0825   -0.0049    0.0012 C.ar      1 <0>        -0.1009
      3 C3         -0.0516   -0.6868   -1.1970 C.ar      1 <0>        -0.0534
      4 C4         -0.0313   -2.0807   -1.2037 C.ar      1 <0>        -0.1119
      5 C5         -0.0422   -2.7811    0.0020 C.ar      1 <0>        -0.0857
      6 C6         -0.0730   -2.0938    1.1966 C.ar      1 <0>        -0.1328
      7 C7         -0.0875   -0.7050    1.2001 C.ar      1 <0>         0.1542
      8 O1         -0.1123   -0.0304    2.3789 O.3       1 <0>        -0.4880
      9 C8          0.0014   -2.8170   -2.4904 C.ar      1 <0>         0.2480
     10 C9          0.0174   -2.1095   -3.6870 C.ar      1 <0>        -0.1769
     11 C10         0.0486   -2.8145   -4.8925 C.ar      1 <0>         0.1346
     12 C11         0.0626   -4.2095   -4.8449 C.ar      1 <0>        -0.2214
     13 C12         0.0451   -4.8451   -3.6096 C.ar      1 <0>         0.4617
     14 N1          0.0206   -4.1450   -2.4866 N.ar      1 <0>        -0.5220
     15 N2          0.0583   -6.2342   -3.5522 N.pl3     1 <0>        -0.5873
     16 C13         0.1724   -6.9291   -2.2628 C.3       1 <0>         0.0996
     17 C14        -0.9826   -7.9275   -2.1368 C.3       1 <0>        -0.1345
     18 C15        -0.9839   -8.8561   -3.3533 C.3       1 <0>        -0.0833
     19 C16        -1.1942   -8.0323   -4.6258 C.3       1 <0>        -0.1383
     20 C17        -0.0477   -7.0351   -4.7794 C.3       1 <0>         0.1107
     21 C18        -2.1151   -9.8768   -3.2141 C.3       1 <0>        -0.0754
     22 C19        -2.0411  -10.8664   -4.3483 C.ar      1 <0>        -0.0889
     23 C20        -2.7160  -10.6166   -5.5286 C.ar      1 <0>        -0.1201
     24 C21        -2.6481  -11.5243   -6.5690 C.ar      1 <0>        -0.1168
     25 C22        -1.9050  -12.6815   -6.4293 C.ar      1 <0>        -0.1190
     26 C23        -1.2294  -12.9308   -5.2493 C.ar      1 <0>        -0.1146
     27 C24        -1.2938  -12.0211   -4.2105 C.ar      1 <0>        -0.1169
     28 C25         0.0660   -2.0980   -6.1919 C.ar      1 <0>        -0.1016
     29 C26         0.0914   -2.8158   -7.3859 C.ar      1 <0>        -0.0786
     30 C27         0.1076   -2.1443   -8.5916 C.ar      1 <0>        -0.1197
     31 C28         0.0991   -0.7614   -8.6161 C.ar      1 <0>        -0.0776
     32 C29         0.0743   -0.0438   -7.4339 C.ar      1 <0>        -0.1191
     33 C30         0.0513   -0.7051   -6.2226 C.ar      1 <0>        -0.0784
     34 H1          0.9177    1.8801    0.0243 H         1 <0>         0.0838
     35 H2         -0.6123    1.8627   -0.8852 H         1 <0>         0.0751
     36 H3         -0.6347    1.8528    0.8946 H         1 <0>         0.0777
     37 H4         -0.0436   -0.1416   -2.1292 H         1 <0>         0.1439
     38 H5         -0.0269   -3.8610   -0.0000 H         1 <0>         0.1224
     39 H6         -0.0815   -2.6357    2.1307 H         1 <0>         0.1472
     40 H7         -1.0027    0.1521    2.7090 H         1 <0>         0.4045
     41 H8          0.0054   -1.0296   -3.6845 H         1 <0>         0.1769
     42 H9          0.0863   -4.7875   -5.7569 H         1 <0>         0.1783
     43 H10         1.1224   -7.4617   -2.2175 H         1 <0>         0.1021
     44 H11         0.1187   -6.2038   -1.4508 H         1 <0>         0.0721
     45 H12        -0.8562   -8.5174   -1.2289 H         1 <0>         0.0948
     46 H13        -1.9278   -7.3865   -2.0910 H         1 <0>         0.0756
     47 H14        -0.0290   -9.3784   -3.4124 H         1 <0>         0.0831
     48 H15        -1.2183   -8.6968   -5.4895 H         1 <0>         0.0994
     49 H16        -2.1373   -7.4903   -4.5566 H         1 <0>         0.0747
     50 H17        -0.2465   -6.3798   -5.6274 H         1 <0>         0.0986
     51 H18         0.8839   -7.5765   -4.9440 H         1 <0>         0.0951
     52 H19        -2.0145  -10.4036   -2.2652 H         1 <0>         0.0783
     53 H20        -3.0751   -9.3615   -3.2436 H         1 <0>         0.0745
     54 H21        -3.2966   -9.7125   -5.6378 H         1 <0>         0.1191
     55 H22        -3.1760  -11.3295   -7.4909 H         1 <0>         0.1233
     56 H23        -1.8526  -13.3910   -7.2418 H         1 <0>         0.1240
     57 H24        -0.6491  -13.8351   -5.1400 H         1 <0>         0.1240
     58 H25        -0.7629  -12.2141   -3.2900 H         1 <0>         0.1207
     59 H26         0.0988   -3.8957   -7.3679 H         1 <0>         0.1298
     60 H27         0.1272   -2.6997   -9.5177 H         1 <0>         0.1370
     61 H28         0.1121   -0.2399   -9.5618 H         1 <0>         0.1362
     62 H29         0.0685    1.0359   -7.4587 H         1 <0>         0.1376
     63 H30         0.0271   -0.1438   -5.3002 H         1 <0>         0.1318
     64 H31         0.0129   -4.6146   -1.6379 H         1 <0>         0.4311
@<TRIPOS>BOND
     1    1    2 1
     2    1   34 1
     3    1   35 1
     4    1   36 1
     5    2    7 ar
     6    2    3 ar
     7    3    4 ar
     8    3   37 1
     9    4    5 ar
    10    4    9 1
    11    5    6 ar
    12    5   38 1
    13    6    7 ar
    14    6   39 1
    15    7    8 1
    16    8   40 1
    17    9   14 ar
    18    9   10 ar
    19   10   11 ar
    20   10   41 1
    21   11   12 ar
    22   11   28 1
    23   12   13 ar
    24   12   42 1
    25   13   14 ar
    26   13   15 1
    27   14   64 1
    28   15   20 1
    29   15   16 1
    30   16   17 1
    31   16   43 1
    32   16   44 1
    33   17   18 1
    34   17   45 1
    35   17   46 1
    36   18   19 1
    37   18   21 1
    38   18   47 1
    39   19   20 1
    40   19   48 1
    41   19   49 1
    42   20   50 1
    43   20   51 1
    44   21   22 1
    45   21   52 1
    46   21   53 1
    47   22   27 ar
    48   22   23 ar
    49   23   24 ar
    50   23   54 1
    51   24   25 ar
    52   24   55 1
    53   25   26 ar
    54   25   56 1
    55   26   27 ar
    56   26   57 1
    57   27   58 1
    58   28   33 ar
    59   28   29 ar
    60   29   30 ar
    61   29   59 1
    62   30   31 ar
    63   30   60 1
    64   31   32 ar
    65   31   61 1
    66   32   33 ar
    67   32   62 1
    68   33   63 1
