@<TRIPOS>MOLECULE
CHEMBL278315
   79    80     0     0     0
SMALL
USER_CHARGES

@<TRIPOS>ATOM
      1 C1         -0.2239    0.7132    1.7044 C.3       1 <0>        -0.1402
      2 C2         -0.3398   -0.7147    1.1649 C.3       1 <0>        -0.0739
      3 H1         -1.3438   -0.8719    0.7782 H         1 <0>         0.0859
      4 C3          0.6899   -0.9346    0.0563 C.3       1 <0>        -0.1308
      5 C4          0.1076   -0.6374   -1.3236 C.3       1 <0>         0.1076
      6 H2          0.9219   -0.6819   -2.0549 H         1 <0>         0.0568
      7 C5         -0.9532   -1.6700   -1.6939 C.3       1 <0>         0.1155
      8 H3         -1.7173   -1.7118   -0.9176 H         1 <0>         0.0818
      9 C6         -1.6179   -1.3140   -3.0281 C.3       1 <0>        -0.0868
     10 H4         -1.4228   -0.2770   -3.2701 H         1 <0>         0.0910
     11 C7         -3.0912   -1.6024   -2.9366 C.2       1 <0>        -0.1195
     12 C8         -4.0302   -0.7074   -3.0596 C.2       1 <0>        -0.1287
     13 C9         -5.4789   -1.1327   -2.9283 C.3       1 <0>         0.1222
     14 H5         -5.6526   -1.9792   -3.5893 H         1 <0>         0.0958
     15 C10        -5.7498   -1.5520   -1.4848 C.3       1 <0>         0.1229
     16 H6         -5.8198   -2.6377   -1.4378 H         1 <0>         0.1201
     17 C11        -7.0330   -0.9452   -0.9747 C.2       1 <0>        -0.1720
     18 C12        -7.2785   -0.9105    0.3436 C.2       1 <0>        -0.0997
     19 C13        -6.3624   -1.4825    1.2460 C.2       1 <0>        -0.0683
     20 C14        -6.1110   -1.0200    2.4930 C.2       1 <0>        -0.1355
     21 C15        -5.1050   -1.7106    3.2727 C.2       1 <0>         0.5213
     22 O1         -4.7790   -2.8209    2.8577 O.2       1 <0>        -0.5299
     23 N1         -4.5309   -1.2822    4.3865 N.2       1 <0>        -0.6046
     24 C16        -3.2260   -1.1751    4.5052 C.2       1 <0>         0.2799
     25 C17        -2.6262   -0.7586    5.7202 C.2       1 <0>        -0.3844
     26 C18        -1.2765   -0.6372    5.8113 C.2       1 <0>         0.2957
     27 O2         -0.7213   -0.2142    6.9727 O.3       1 <0>        -0.6471
     28 C19        -0.4037   -0.9541    4.6685 C.2       1 <0>         0.1511
     29 C20        -0.9341   -1.3654    3.4941 C.2       1 <0>        -0.2139
     30 C21        -0.0743   -1.7046    2.3018 C.3       1 <0>        -0.0540
     31 C22        -2.3402   -1.4984    3.3488 C.2       1 <0>         0.3752
     32 O3         -2.7948   -1.8611    2.2836 O.2       1 <0>        -0.3990
     33 O4          0.9374   -0.8415    4.8117 O.3       1 <0>        -0.3264
     34 C23         1.5688   -1.7334    5.7325 C.3       1 <0>         0.0384
     35 C24        -6.8436    0.1698    3.0458 C.3       1 <0>        -0.1095
     36 O5         -4.6540   -1.1198   -0.6701 O.3       1 <0>        -0.3393
     37 C25        -4.6649    0.2785   -0.3754 C.3       1 <0>         0.0250
     38 O6         -6.3204   -0.0442   -3.2972 O.3       1 <0>        -0.3455
     39 C26        -6.6733    0.0436   -4.5935 C.2       1 <0>         0.6470
     40 O7         -6.2753   -0.7842   -5.3889 O.2       1 <0>        -0.5704
     41 N2         -7.4679    1.0498   -5.0089 N.am      1 <0>        -0.8288
     42 C27        -3.7237    0.7447   -3.3208 C.3       1 <0>        -0.1129
     43 C28        -1.0115   -2.1977   -4.1280 C.3       1 <0>        -0.1357
     44 O8         -0.3361   -2.9574   -1.8156 O.3       1 <0>        -0.5622
     45 O9         -0.4562    0.6735   -1.3447 O.3       1 <0>        -0.3682
     46 C29         0.4637    1.6956   -1.7332 C.3       1 <0>         0.0322
     47 H7          0.7817    0.8743    2.0930 H         1 <0>         0.0474
     48 H8         -0.4207    1.4225    0.9005 H         1 <0>         0.0561
     49 H9         -0.9501    0.8596    2.5040 H         1 <0>         0.0478
     50 H10         1.5531   -0.2956    0.2388 H         1 <0>         0.0596
     51 H11         1.0171   -1.9770    0.0895 H         1 <0>         0.0768
     52 H12        -3.3975   -2.6351   -2.7561 H         1 <0>         0.0997
     53 H13        -7.7627   -0.5541   -1.6568 H         1 <0>         0.1240
     54 H14        -8.1894   -0.4440    0.6965 H         1 <0>         0.1186
     55 H15        -5.8292   -2.3851    0.9268 H         1 <0>         0.1339
     56 H16        -3.2453   -0.5464    6.5756 H         1 <0>         0.1237
     57 H17        -0.3204   -2.7143    1.9639 H         1 <0>         0.0672
     58 H18         0.9759   -1.6671    2.5825 H         1 <0>         0.0705
     59 H19         1.4171   -2.7617    5.4044 H         1 <0>         0.0402
     60 H20         2.6366   -1.5185    5.7724 H         1 <0>         0.0878
     61 H21         1.1341   -1.6003    6.7232 H         1 <0>         0.0700
     62 H22        -7.7466   -0.1646    3.5565 H         1 <0>         0.0670
     63 H23        -6.2010    0.6965    3.7514 H         1 <0>         0.0730
     64 H24        -7.1145    0.8407    2.2305 H         1 <0>         0.0572
     65 H25        -3.6710    0.5899   -0.0543 H         1 <0>         0.0781
     66 H26        -4.9496    0.8357   -1.2680 H         1 <0>         0.0517
     67 H27        -5.3826    0.4764    0.4207 H         1 <0>         0.0431
     68 H28        -7.7856    1.7107   -4.3739 H         1 <0>         0.4079
     69 H29        -7.7222    1.1131   -5.9429 H         1 <0>         0.4241
     70 H30        -2.6442    0.8830   -3.3810 H         1 <0>         0.0693
     71 H31        -4.1821    1.0493   -4.2616 H         1 <0>         0.0496
     72 H32        -4.1230    1.3522   -2.5086 H         1 <0>         0.0723
     73 H33        -1.1912   -3.2465   -3.8918 H         1 <0>         0.0560
     74 H34        -1.4747   -1.9562   -5.0847 H         1 <0>         0.0495
     75 H35         0.0618   -2.0176   -4.1882 H         1 <0>         0.0567
     76 H36        -0.9497   -3.6672   -2.0499 H         1 <0>         0.3800
     77 H37        -0.0413    2.6615   -1.7242 H         1 <0>         0.0840
     78 H38         1.3001    1.7164   -1.0345 H         1 <0>         0.0422
     79 H39         0.8340    1.4886   -2.7372 H         1 <0>         0.0366
@<TRIPOS>BOND
     1    1    2 1
     2    1   47 1
     3    1   48 1
     4    1   49 1
     5    2    3 1
     6    2   30 1
     7    2    4 1
     8    4    5 1
     9    4   50 1
    10    4   51 1
    11    5    6 1
    12    5    7 1
    13    5   45 1
    14    7    8 1
    15    7    9 1
    16    7   44 1
    17    9   10 1
    18    9   11 1
    19    9   43 1
    20   11   12 2
    21   11   52 1
    22   12   13 1
    23   12   42 1
    24   13   14 1
    25   13   15 1
    26   13   38 1
    27   15   16 1
    28   15   17 1
    29   15   36 1
    30   17   18 2
    31   17   53 1
    32   18   19 1
    33   18   54 1
    34   19   20 2
    35   19   55 1
    36   20   21 1
    37   20   35 1
    38   21   22 2
    39   21   23 1
    40   23   24 2
    41   24   31 1
    42   24   25 1
    43   25   26 2
    44   25   56 1
    45   26   27 1
    46   26   28 1
    47   28   29 2
    48   28   33 1
    49   29   30 1
    50   29   31 1
    51   30   57 1
    52   30   58 1
    53   31   32 2
    54   33   34 1
    55   34   59 1
    56   34   60 1
    57   34   61 1
    58   35   62 1
    59   35   63 1
    60   35   64 1
    61   36   37 1
    62   37   65 1
    63   37   66 1
    64   37   67 1
    65   38   39 1
    66   39   40 2
    67   39   41 am
    68   41   68 1
    69   41   69 1
    70   42   70 1
    71   42   71 1
    72   42   72 1
    73   43   73 1
    74   43   74 1
    75   43   75 1
    76   44   76 1
    77   45   46 1
    78   46   77 1
    79   46   78 1
    80   46   79 1
