@<TRIPOS>MOLECULE
CHEMBL101914
   50    54     0     0     0
SMALL
USER_CHARGES

@<TRIPOS>ATOM
      1 C1         -0.4204    1.9214    0.0469 C.3       1 <0>        -0.1246
      2 C2         -0.3378    0.4343   -0.1746 C.2       1 <0>        -0.0627
      3 C3         -0.5680    0.0211   -1.4241 C.2       1 <0>        -0.1751
      4 C4         -0.5055   -1.4318   -1.7951 C.3       1 <0>         0.2116
      5 N1          0.4444   -2.1134   -0.9109 N.pl3     1 <0>        -0.7346
      6 C5          0.4403   -1.8092    0.4499 C.ar      1 <0>         0.2232
      7 C6         -0.0179   -0.5402    0.8803 C.ar      1 <0>        -0.0894
      8 C7         -0.1847   -0.3365    2.2430 C.ar      1 <0>        -0.0499
      9 C8          0.2806   -1.3055    3.1460 C.ar      1 <0>        -0.0845
     10 C9          0.8954   -2.4692    2.6999 C.ar      1 <0>        -0.0546
     11 C10         0.9669   -2.7203    1.3469 C.ar      1 <0>        -0.1816
     12 C11         0.0612   -1.0938    4.5970 C.ar      1 <0>        -0.0940
     13 C12         0.7646   -1.8097    5.5561 C.ar      1 <0>        -0.0846
     14 C13         0.5266   -1.5716    6.8971 C.ar      1 <0>        -0.1411
     15 C14        -0.4046   -0.6243    7.2842 C.ar      1 <0>        -0.0923
     16 C15        -1.1089    0.0946    6.3351 C.ar      1 <0>        -0.1367
     17 C16        -0.8805   -0.1366    4.9921 C.ar      1 <0>         0.1221
     18 O1         -1.5580    0.5362    4.0275 O.3       1 <0>        -0.3051
     19 C17        -0.8245    0.8864    2.8440 C.3       1 <0>         0.1802
     20 C18         0.2427    1.8736    3.2412 C.ar      1 <0>        -0.1195
     21 C19         1.4768    1.8448    2.6192 C.ar      1 <0>        -0.0964
     22 C20         2.4557    2.7503    2.9835 C.ar      1 <0>        -0.1233
     23 C21         2.2002    3.6850    3.9694 C.ar      1 <0>        -0.1114
     24 C22         0.9657    3.7144    4.5907 C.ar      1 <0>        -0.1210
     25 C23        -0.0146    2.8116    4.2234 C.ar      1 <0>        -0.0936
     26 C24        -1.8913   -2.0628   -1.6454 C.3       1 <0>        -0.1581
     27 C25        -0.0406   -1.5704   -3.2469 C.3       1 <0>        -0.1528
     28 H1          0.5091    2.2745    0.4935 H         1 <0>         0.0745
     29 H2         -0.5782    2.4228   -0.9080 H         1 <0>         0.0700
     30 H3         -1.2521    2.1435    0.7157 H         1 <0>         0.0693
     31 H4         -0.8023    0.7583   -2.1781 H         1 <0>         0.1247
     32 H5          1.0682   -2.7687   -1.2675 H         1 <0>         0.4029
     33 H6          1.3122   -3.1706    3.4066 H         1 <0>         0.1299
     34 H7          1.4328   -3.6259    0.9846 H         1 <0>         0.1281
     35 H8          1.4958   -2.5470    5.2604 H         1 <0>         0.1260
     36 H9          1.0714   -2.1277    7.6460 H         1 <0>         0.1255
     37 H10        -0.5837   -0.4447    8.3337 H         1 <0>         0.1287
     38 H11        -1.8341    0.8324    6.6446 H         1 <0>         0.1310
     39 H12        -1.5306    1.3361    2.1583 H         1 <0>         0.1340
     40 H13         1.6765    1.1145    1.8489 H         1 <0>         0.1248
     41 H14         3.4202    2.7274    2.4981 H         1 <0>         0.1220
     42 H15         2.9652    4.3920    4.2545 H         1 <0>         0.1222
     43 H16         0.7662    4.4444    5.3612 H         1 <0>         0.1238
     44 H17        -0.9803    2.8370    4.7063 H         1 <0>         0.1262
     45 H18        -2.5958   -1.5523   -2.3021 H         1 <0>         0.0668
     46 H19        -1.8414   -3.1175   -1.9157 H         1 <0>         0.0602
     47 H20        -2.2240   -1.9679   -0.6118 H         1 <0>         0.0576
     48 H21         0.9485   -1.1256   -3.3556 H         1 <0>         0.0632
     49 H22         0.0042   -2.6260   -3.5148 H         1 <0>         0.0637
     50 H23        -0.7436   -1.0583   -3.9039 H         1 <0>         0.0749
@<TRIPOS>BOND
     1    1    2 1
     2    1   28 1
     3    1   29 1
     4    1   30 1
     5    2    7 1
     6    2    3 2
     7    3    4 1
     8    3   31 1
     9    4    5 1
    10    4   26 1
    11    4   27 1
    12    5    6 1
    13    5   32 1
    14    6   11 ar
    15    6    7 ar
    16    7    8 ar
    17    8   19 1
    18    8    9 ar
    19    9   10 ar
    20    9   12 1
    21   10   11 ar
    22   10   33 1
    23   11   34 1
    24   12   17 ar
    25   12   13 ar
    26   13   14 ar
    27   13   35 1
    28   14   15 ar
    29   14   36 1
    30   15   16 ar
    31   15   37 1
    32   16   17 ar
    33   16   38 1
    34   17   18 1
    35   18   19 1
    36   19   20 1
    37   19   39 1
    38   20   25 ar
    39   20   21 ar
    40   21   22 ar
    41   21   40 1
    42   22   23 ar
    43   22   41 1
    44   23   24 ar
    45   23   42 1
    46   24   25 ar
    47   24   43 1
    48   25   44 1
    49   26   45 1
    50   26   46 1
    51   26   47 1
    52   27   48 1
    53   27   49 1
    54   27   50 1
