@<TRIPOS>MOLECULE
CHEMBL282292
   62    65     0     0     0
SMALL
USER_CHARGES

@<TRIPOS>ATOM
      1 C1          0.0292   -0.4204    0.8359 C.3       1 <0>        -0.1541
      2 C2         -0.6751    0.0064   -0.4535 C.3       1 <0>        -0.0769
      3 C3          0.1688   -0.4136   -1.6586 C.3       1 <0>        -0.1829
      4 C4         -2.0469   -0.6664   -0.5321 C.3       1 <0>        -0.1562
      5 H1         -2.6174   -0.4526    0.3718 H         1 <0>         0.1160
      6 C5         -2.8092   -0.1576   -1.7643 C.3       1 <0>         0.1478
      7 H2         -3.7894   -0.6325   -1.8074 H         1 <0>         0.0905
      8 O1         -2.0712   -0.4804   -2.9428 O.3       1 <0>        -0.2992
      9 C6         -1.6801   -1.7618   -3.1340 C.ar      1 <0>         0.2003
     10 C7         -1.3924   -2.2155   -4.4112 C.ar      1 <0>        -0.1920
     11 C8         -0.9861   -3.5277   -4.6038 C.ar      1 <0>         0.1821
     12 C9         -0.8633   -4.3972   -3.5227 C.ar      1 <0>        -0.1845
     13 C10        -1.1446   -3.9665   -2.2575 C.ar      1 <0>        -0.0108
     14 C11        -1.5587   -2.6477   -2.0489 C.ar      1 <0>        -0.2553
     15 C12        -1.8785   -2.1666   -0.6944 C.2       1 <0>         0.4087
     16 O2         -2.0015   -2.9276    0.2427 O.2       1 <0>        -0.4329
     17 O3         -0.7063   -3.9682   -5.8562 O.3       1 <0>        -0.4929
     18 C13        -2.9782    1.3369   -1.6694 C.ar      1 <0>        -0.1043
     19 C14        -1.9958    2.1752   -2.1633 C.ar      1 <0>        -0.0493
     20 C15        -2.1482    3.5455   -2.0771 C.ar      1 <0>        -0.1418
     21 C16        -3.2882    4.0803   -1.4949 C.ar      1 <0>         0.1216
     22 C17        -4.2727    3.2370   -1.0006 C.ar      1 <0>        -0.2005
     23 C18        -4.1179    1.8674   -1.0939 C.ar      1 <0>        -0.0611
     24 O4         -3.4402    5.4280   -1.4086 O.3       1 <0>        -0.3274
     25 C19        -4.6392    5.9078   -0.7969 C.3       1 <0>         0.0249
     26 C20        -4.6315    7.4378   -0.7904 C.3       1 <0>        -0.0009
     27 N1         -4.6310    7.9334   -2.1733 N.4       1 <0>        -0.3841
     28 C21        -4.4775    9.3931   -2.1683 C.3       1 <0>        -0.0070
     29 C22        -4.3950    9.9061   -3.6076 C.3       1 <0>        -0.1467
     30 C23        -5.6787    9.5287   -4.3525 C.3       1 <0>        -0.1391
     31 C24        -5.8675    8.0104   -4.2874 C.3       1 <0>        -0.1453
     32 C25        -5.8954    7.5677   -2.8229 C.3       1 <0>        -0.0131
     33 H3          1.0370   -0.0054    0.8540 H         1 <0>         0.0638
     34 H4         -0.5310   -0.0518    1.6952 H         1 <0>         0.0586
     35 H5          0.0836   -1.5083    0.8772 H         1 <0>         0.0574
     36 H6         -0.8007    1.0892   -0.4576 H         1 <0>         0.0867
     37 H7          0.1729   -1.5007   -1.7381 H         1 <0>         0.0654
     38 H8         -0.2553    0.0155   -2.5664 H         1 <0>         0.0801
     39 H9          1.1900   -0.0549   -1.5299 H         1 <0>         0.0596
     40 H10        -1.4846   -1.5484   -5.2556 H         1 <0>         0.1457
     41 H11        -0.5440   -5.4160   -3.6855 H         1 <0>         0.1414
     42 H12        -1.0482   -4.6429   -1.4210 H         1 <0>         0.1428
     43 H13         0.2172   -3.8500   -6.1175 H         1 <0>         0.4028
     44 H14        -1.1085    1.7584   -2.6164 H         1 <0>         0.1447
     45 H15        -1.3802    4.1999   -2.4623 H         1 <0>         0.1366
     46 H16        -5.1610    3.6509   -0.5469 H         1 <0>         0.1316
     47 H17        -4.8860    1.2105   -0.7132 H         1 <0>         0.1347
     48 H18        -5.5020    5.5512   -1.3596 H         1 <0>         0.0872
     49 H19        -4.6965    5.5404    0.2277 H         1 <0>         0.1101
     50 H20        -5.5189    7.8034   -0.2737 H         1 <0>         0.1492
     51 H21        -3.7389    7.7944   -0.2763 H         1 <0>         0.1427
     52 H22        -5.3344    9.8464   -1.6700 H         1 <0>         0.1291
     53 H23        -3.5651    9.6602   -1.6350 H         1 <0>         0.1311
     54 H24        -4.2828   10.9903   -3.6017 H         1 <0>         0.1131
     55 H25        -3.5381    9.4535   -4.1067 H         1 <0>         0.0881
     56 H26        -6.5303   10.0223   -3.8843 H         1 <0>         0.0821
     57 H27        -5.6014    9.8421   -5.3936 H         1 <0>         0.0948
     58 H28        -6.8078    7.7396   -4.7675 H         1 <0>         0.1123
     59 H29        -5.0412    7.5185   -4.8006 H         1 <0>         0.0880
     60 H30        -6.0299    6.4872   -2.7729 H         1 <0>         0.1273
     61 H31        -6.7221    8.0599   -2.3107 H         1 <0>         0.1302
     62 H32        -3.8623    7.5181   -2.6780 H         1 <0>         0.4295
@<TRIPOS>BOND
     1    1    2 1
     2    1   33 1
     3    1   34 1
     4    1   35 1
     5    2    3 1
     6    2    4 1
     7    2   36 1
     8    3   37 1
     9    3   38 1
    10    3   39 1
    11    4    5 1
    12    4   15 1
    13    4    6 1
    14    6    7 1
    15    6    8 1
    16    6   18 1
    17    8    9 1
    18    9   14 ar
    19    9   10 ar
    20   10   11 ar
    21   10   40 1
    22   11   12 ar
    23   11   17 1
    24   12   13 ar
    25   12   41 1
    26   13   14 ar
    27   13   42 1
    28   14   15 1
    29   15   16 2
    30   17   43 1
    31   18   23 ar
    32   18   19 ar
    33   19   20 ar
    34   19   44 1
    35   20   21 ar
    36   20   45 1
    37   21   22 ar
    38   21   24 1
    39   22   23 ar
    40   22   46 1
    41   23   47 1
    42   24   25 1
    43   25   26 1
    44   25   48 1
    45   25   49 1
    46   26   27 1
    47   26   50 1
    48   26   51 1
    49   27   32 1
    50   27   28 1
    51   27   62 1
    52   28   29 1
    53   28   52 1
    54   28   53 1
    55   29   30 1
    56   29   54 1
    57   29   55 1
    58   30   31 1
    59   30   56 1
    60   30   57 1
    61   31   32 1
    62   31   58 1
    63   31   59 1
    64   32   60 1
    65   32   61 1
