@<TRIPOS>MOLECULE
CHEMBL278936
   38    41     0     0     0
SMALL
USER_CHARGES

@<TRIPOS>ATOM
      1 C1         -0.0167    1.3784    0.0096 C.ar      1 <0>        -0.0863
      2 C2          1.1695    2.0865    0.0021 C.ar      1 <0>        -0.1445
      3 C3          2.3802    1.4093   -0.0131 C.ar      1 <0>         0.1139
      4 C4          2.3963    0.0221   -0.0206 C.ar      1 <0>        -0.1461
      5 C5          1.2074   -0.6814   -0.0130 C.ar      1 <0>        -0.0764
      6 C6          0.0021   -0.0041    0.0020 C.ar      1 <0>        -0.0976
      7 C7         -1.2934   -0.7740    0.0107 C.3       1 <0>         0.1437
      8 H1         -2.0959   -0.1318    0.3735 H         1 <0>         0.0874
      9 C8         -1.6165   -1.2423   -1.4037 C.3       1 <0>        -0.1125
     10 H2         -1.6635   -0.3914   -2.0833 H         1 <0>         0.1085
     11 C9         -0.5633   -2.2553   -1.8848 C.3       1 <0>        -0.1816
     12 C10        -1.3083   -3.3292   -2.6515 C.2       1 <0>         0.3729
     13 O1         -0.8234   -4.3076   -3.1671 O.2       1 <0>        -0.4401
     14 C11        -2.7778   -2.9472   -2.6504 C.3       1 <0>        -0.1768
     15 C12        -2.9512   -2.0124   -1.4141 C.3       1 <0>        -0.0383
     16 H3         -3.8006   -1.3380   -1.5226 H         1 <0>         0.1124
     17 C13        -3.0744   -2.8874   -0.1943 C.ar      1 <0>        -0.1399
     18 C14        -4.1098   -3.8098   -0.1508 C.ar      1 <0>        -0.1088
     19 C15        -4.2656   -4.6366    0.9487 C.ar      1 <0>         0.0782
     20 C16        -3.3832   -4.5445    2.0151 C.ar      1 <0>        -0.1096
     21 C17        -2.3528   -3.6279    1.9743 C.ar      1 <0>        -0.1269
     22 C18        -2.1965   -2.7979    0.8694 C.ar      1 <0>         0.1235
     23 O2         -1.1673   -1.9089    0.8671 O.3       1 <0>        -0.3019
     24 O3         -5.2832   -5.5380    0.9834 O.3       1 <0>        -0.4971
     25 O4          3.5484    2.1036   -0.0209 O.3       1 <0>        -0.4996
     26 H4         -0.9594    1.9052    0.0259 H         1 <0>         0.1305
     27 H5          1.1543    3.1664    0.0076 H         1 <0>         0.1329
     28 H6          3.3375   -0.5074   -0.0328 H         1 <0>         0.1317
     29 H7          1.2194   -1.7613   -0.0189 H         1 <0>         0.1316
     30 H8          0.1569   -1.7626   -2.5380 H         1 <0>         0.1056
     31 H9         -0.0511   -2.6954   -1.0292 H         1 <0>         0.1084
     32 H10        -3.0302   -2.4041   -3.5612 H         1 <0>         0.1114
     33 H11        -3.4015   -3.8355   -2.5510 H         1 <0>         0.0993
     34 H12        -4.7981   -3.8835   -0.9798 H         1 <0>         0.1333
     35 H13        -3.5025   -5.1878    2.8743 H         1 <0>         0.1372
     36 H14        -1.6651   -3.5545    2.8037 H         1 <0>         0.1376
     37 H15        -5.0560   -6.4021    0.6136 H         1 <0>         0.3901
     38 H16         3.8951    2.3001    0.8601 H         1 <0>         0.3938
@<TRIPOS>BOND
     1    1    6 ar
     2    1    2 ar
     3    1   26 1
     4    2    3 ar
     5    2   27 1
     6    3    4 ar
     7    3   25 1
     8    4    5 ar
     9    4   28 1
    10    5    6 ar
    11    5   29 1
    12    6    7 1
    13    7    8 1
    14    7   23 1
    15    7    9 1
    16    9   10 1
    17    9   15 1
    18    9   11 1
    19   11   12 1
    20   11   30 1
    21   11   31 1
    22   12   13 2
    23   12   14 1
    24   14   15 1
    25   14   32 1
    26   14   33 1
    27   15   16 1
    28   15   17 1
    29   17   22 ar
    30   17   18 ar
    31   18   19 ar
    32   18   34 1
    33   19   20 ar
    34   19   24 1
    35   20   21 ar
    36   20   35 1
    37   21   22 ar
    38   21   36 1
    39   22   23 1
    40   24   37 1
    41   25   38 1
