@<TRIPOS>MOLECULE
CHEMBL431611
   65    69     0     0     0
SMALL
USER_CHARGES

@<TRIPOS>ATOM
      1 C1         -0.2029    2.3859   -1.8457 C.ar      1 <0>        -0.0609
      2 C2          0.8127    3.2023   -2.3044 C.ar      1 <0>        -0.1382
      3 C3          2.0768    2.6760   -2.5275 C.ar      1 <0>         0.1215
      4 C4          2.3175    1.3307   -2.2893 C.ar      1 <0>        -0.2021
      5 C5          1.2985    0.5185   -1.8307 C.ar      1 <0>        -0.0476
      6 C6          0.0395    1.0454   -1.6091 C.ar      1 <0>        -0.0992
      7 C7         -1.0702    0.1572   -1.1084 C.3       1 <0>         0.1434
      8 H1         -1.7782    0.7499   -0.5291 H         1 <0>         0.0929
      9 C8         -1.7940   -0.4850   -2.3037 C.3       1 <0>        -0.1018
     10 H2         -2.1313    0.2885   -2.9935 H         1 <0>         0.1318
     11 S1         -3.2260   -1.3887   -1.6352 S.3       1 <0>        -0.0820
     12 C9         -2.5465   -2.1921   -0.2162 C.ar      1 <0>        -0.1424
     13 C10        -3.2735   -3.2025    0.3994 C.ar      1 <0>        -0.0915
     14 C11        -2.7661   -3.8423    1.5186 C.ar      1 <0>         0.0978
     15 C12        -1.5295   -3.4659    2.0221 C.ar      1 <0>        -0.1081
     16 C13        -0.8058   -2.4637    1.4096 C.ar      1 <0>        -0.1156
     17 C14        -1.3024   -1.8184    0.2794 C.ar      1 <0>         0.1254
     18 O1         -0.5260   -0.8663   -0.2892 O.3       1 <0>        -0.3089
     19 O2         -3.4765   -4.8333    2.1204 O.3       1 <0>        -0.4922
     20 C15        -0.8537   -1.4530   -3.0246 C.3       1 <0>        -0.0828
     21 C16        -1.1240   -1.4199   -4.5430 C.3       1 <0>        -0.1154
     22 C17        -0.9409   -2.8905   -4.9936 C.3       1 <0>        -0.1241
     23 C18        -1.5509   -3.6878   -3.8141 C.3       1 <0>        -0.1178
     24 C19        -1.1252   -2.8950   -2.5611 C.3       1 <0>        -0.1540
     25 O3          3.0775    3.4770   -2.9791 O.3       1 <0>        -0.3282
     26 C20         4.3531    2.8671   -3.1865 C.3       1 <0>         0.0254
     27 C21         5.3444    3.9173   -3.6919 C.3       1 <0>        -0.0006
     28 N1          5.4972    4.9726   -2.6815 N.4       1 <0>        -0.3840
     29 C22         6.2971    6.0697   -3.2392 C.3       1 <0>        -0.0071
     30 C23         6.3913    7.2068   -2.2195 C.3       1 <0>        -0.1467
     31 C24         7.0566    6.6860   -0.9423 C.3       1 <0>        -0.1390
     32 C25         6.2551    5.4944   -0.4104 C.3       1 <0>        -0.1454
     33 C26         6.1659    4.4207   -1.4971 C.3       1 <0>        -0.0126
     34 H3         -1.1860    2.7960   -1.6676 H         1 <0>         0.1398
     35 H4          0.6228    4.2492   -2.4894 H         1 <0>         0.1378
     36 H5          3.3006    0.9185   -2.4626 H         1 <0>         0.1302
     37 H6          1.4853   -0.5289   -1.6451 H         1 <0>         0.1382
     38 H7         -4.2366   -3.4906    0.0045 H         1 <0>         0.1400
     39 H8         -1.1321   -3.9589    2.8970 H         1 <0>         0.1412
     40 H9          0.1554   -2.1771    1.8099 H         1 <0>         0.1386
     41 H10        -3.2892   -5.7169    1.7752 H         1 <0>         0.3943
     42 H11         0.1835   -1.1852   -2.8233 H         1 <0>         0.0861
     43 H12        -2.1416   -1.0838   -4.7421 H         1 <0>         0.0685
     44 H13        -0.4030   -0.7746   -5.0448 H         1 <0>         0.0631
     45 H14        -1.4900   -3.0834   -5.9152 H         1 <0>         0.0681
     46 H15         0.1158   -3.1285   -5.1152 H         1 <0>         0.0642
     47 H16        -2.6375   -3.7180   -3.8955 H         1 <0>         0.0697
     48 H17        -1.1415   -4.6976   -3.7840 H         1 <0>         0.0627
     49 H18        -0.2195   -3.3272   -2.1357 H         1 <0>         0.0577
     50 H19        -1.9268   -2.9052   -1.8226 H         1 <0>         0.0960
     51 H20         4.7136    2.4499   -2.2462 H         1 <0>         0.0872
     52 H21         4.2594    2.0709   -3.9250 H         1 <0>         0.1100
     53 H22         6.3104    3.4467   -3.8748 H         1 <0>         0.1492
     54 H23         4.9711    4.3529   -4.6187 H         1 <0>         0.1424
     55 H24         7.2983    5.7070   -3.4718 H         1 <0>         0.1292
     56 H25         5.8241    6.4372   -4.1498 H         1 <0>         0.1310
     57 H26         6.9871    8.0196   -2.6348 H         1 <0>         0.1132
     58 H27         5.3905    7.5704   -1.9864 H         1 <0>         0.0880
     59 H28         8.0756    6.3695   -1.1651 H         1 <0>         0.0821
     60 H29         7.0750    7.4768   -0.1924 H         1 <0>         0.0948
     61 H30         6.7535    5.0832    0.4675 H         1 <0>         0.1124
     62 H31         5.2515    5.8225   -0.1397 H         1 <0>         0.0879
     63 H32         5.5960    3.5708   -1.1216 H         1 <0>         0.1270
     64 H33         7.1699    4.0932   -1.7668 H         1 <0>         0.1302
     65 H34         4.5871    5.3214   -2.4206 H         1 <0>         0.4295
@<TRIPOS>BOND
     1    1    6 ar
     2    1    2 ar
     3    1   34 1
     4    2    3 ar
     5    2   35 1
     6    3    4 ar
     7    3   25 1
     8    4    5 ar
     9    4   36 1
    10    5    6 ar
    11    5   37 1
    12    6    7 1
    13    7    8 1
    14    7   18 1
    15    7    9 1
    16    9   10 1
    17    9   11 1
    18    9   20 1
    19   11   12 1
    20   12   17 ar
    21   12   13 ar
    22   13   14 ar
    23   13   38 1
    24   14   15 ar
    25   14   19 1
    26   15   16 ar
    27   15   39 1
    28   16   17 ar
    29   16   40 1
    30   17   18 1
    31   19   41 1
    32   20   24 1
    33   20   21 1
    34   20   42 1
    35   21   22 1
    36   21   43 1
    37   21   44 1
    38   22   23 1
    39   22   45 1
    40   22   46 1
    41   23   24 1
    42   23   47 1
    43   23   48 1
    44   24   49 1
    45   24   50 1
    46   25   26 1
    47   26   27 1
    48   26   51 1
    49   26   52 1
    50   27   28 1
    51   27   53 1
    52   27   54 1
    53   28   33 1
    54   28   29 1
    55   28   65 1
    56   29   30 1
    57   29   55 1
    58   29   56 1
    59   30   31 1
    60   30   57 1
    61   30   58 1
    62   31   32 1
    63   31   59 1
    64   31   60 1
    65   32   33 1
    66   32   61 1
    67   32   62 1
    68   33   63 1
    69   33   64 1
