@<TRIPOS>MOLECULE
CHEMBL241485
   76    80     0     0     0
SMALL
USER_CHARGES

@<TRIPOS>ATOM
      1 C1         -0.0187    1.5258    0.0104 C.3       1 <0>        -0.1657
      2 C2          0.0021   -0.0041    0.0020 C.3       1 <0>         0.1423
      3 H1          0.5293   -0.3651    0.8851 H         1 <0>         0.0894
      4 C3          0.7182   -0.4975   -1.2568 C.3       1 <0>        -0.1228
      5 C4          0.8493   -2.0210   -1.2049 C.3       1 <0>        -0.0772
      6 C5          1.5546   -2.5070   -2.4448 C.ar      1 <0>        -0.0942
      7 C6          0.8231   -2.8339   -3.5717 C.ar      1 <0>        -0.1010
      8 C7          1.4673   -3.2801   -4.7094 C.ar      1 <0>        -0.1429
      9 C8          2.8494   -3.3996   -4.7207 C.ar      1 <0>         0.1024
     10 C9          3.5812   -3.0705   -3.5889 C.ar      1 <0>        -0.1421
     11 C10         2.9326   -2.6199   -2.4555 C.ar      1 <0>        -0.1004
     12 O1          3.4855   -3.8387   -5.8386 O.3       1 <0>        -0.5004
     13 N1         -1.3723   -0.5112    0.0124 N.am      1 <0>        -0.7276
     14 C11        -2.0286   -0.6552    1.1807 C.2       1 <0>         0.5128
     15 O2         -1.4814   -0.3650    2.2235 O.2       1 <0>        -0.5253
     16 C12        -3.4424   -1.1768    1.1914 C.3       1 <0>        -0.0726
     17 C13        -3.9431   -1.2421    2.6114 C.2       1 <0>        -0.1246
     18 C14        -3.8204   -2.3765    3.5261 C.ar      1 <0>        -0.1076
     19 C15        -3.2596   -3.6525    3.4140 C.ar      1 <0>        -0.0227
     20 C16        -3.3048   -4.5102    4.4752 C.ar      1 <0>        -0.2229
     21 C17        -3.9063   -4.1237    5.6708 C.ar      1 <0>         0.1305
     22 C18        -4.4669   -2.8669    5.8017 C.ar      1 <0>        -0.1561
     23 C19        -4.4299   -1.9794    4.7316 C.ar      1 <0>         0.1412
     24 N2         -4.8895   -0.6926    4.5572 N.pl3     1 <0>        -0.5828
     25 H2         -5.3521   -0.1694    5.2303 H         1 <0>         0.4196
     26 C20        -4.5876   -0.2583    3.2857 C.2       1 <0>         0.1433
     27 C21        -4.9191    1.0749    2.7385 C.ar      1 <0>        -0.0468
     28 C22        -3.9675    1.7896    2.0097 C.ar      1 <0>        -0.0925
     29 C23        -4.2831    3.0330    1.5019 C.ar      1 <0>        -0.1161
     30 C24        -5.5398    3.5715    1.7140 C.ar      1 <0>        -0.1045
     31 C25        -6.4877    2.8681    2.4357 C.ar      1 <0>        -0.1170
     32 C26        -6.1867    1.6213    2.9439 C.ar      1 <0>        -0.1047
     33 O3         -3.9427   -4.9901    6.7176 O.3       1 <0>        -0.3291
     34 C27        -3.3466   -6.2735    6.5186 C.3       1 <0>         0.0294
     35 C28        -3.4838   -7.1033    7.7966 C.3       1 <0>         0.0033
     36 N3         -4.9047   -7.3708    8.0565 N.4       1 <0>        -0.3955
     37 C29        -5.4481   -8.2952    7.0287 C.3       1 <0>        -0.0103
     38 C30        -6.6929   -8.9039    7.7220 C.3       1 <0>        -0.1447
     39 C31        -6.2293   -9.0619    9.1883 C.3       1 <0>        -0.1450
     40 C32        -5.0638   -8.0686    9.3509 C.3       1 <0>        -0.0087
     41 H3          1.0039    1.9031    0.0027 H         1 <0>         0.0674
     42 H4         -0.5459    1.8868   -0.8726 H         1 <0>         0.0586
     43 H5         -0.5289    1.8773    0.9072 H         1 <0>         0.0604
     44 H6          0.1430   -0.2121   -2.1375 H         1 <0>         0.0722
     45 H7          1.7103   -0.0491   -1.3098 H         1 <0>         0.0825
     46 H8          1.4245   -2.3064   -0.3242 H         1 <0>         0.0732
     47 H9         -0.1428   -2.4694   -1.1520 H         1 <0>         0.0724
     48 H10        -0.2528   -2.7407   -3.5623 H         1 <0>         0.1250
     49 H11         0.8955   -3.5360   -5.5891 H         1 <0>         0.1288
     50 H12         4.6572   -3.1627   -3.5953 H         1 <0>         0.1292
     51 H13         3.5021   -2.3594   -1.5756 H         1 <0>         0.1261
     52 H14         3.7392   -3.1334   -6.4495 H         1 <0>         0.3928
     53 H15        -1.8100   -0.7432   -0.8215 H         1 <0>         0.4000
     54 H16        -4.0803   -0.5097    0.6116 H         1 <0>         0.1035
     55 H17        -3.4651   -2.1740    0.7520 H         1 <0>         0.1023
     56 H18        -2.7919   -3.9589    2.4900 H         1 <0>         0.1282
     57 H19        -2.8716   -5.4955    4.3870 H         1 <0>         0.1268
     58 H20        -4.9319   -2.5751    6.7317 H         1 <0>         0.1296
     59 H21        -2.9860    1.3705    1.8437 H         1 <0>         0.1310
     60 H22        -3.5475    3.5873    0.9380 H         1 <0>         0.1285
     61 H23        -5.7817    4.5454    1.3148 H         1 <0>         0.1281
     62 H24        -7.4667    3.2942    2.5981 H         1 <0>         0.1286
     63 H25        -6.9290    1.0712    3.5033 H         1 <0>         0.1215
     64 H26        -3.8498   -6.7845    5.6978 H         1 <0>         0.0854
     65 H27        -2.2909   -6.1502    6.2770 H         1 <0>         0.1085
     66 H28        -2.9525   -8.0473    7.6757 H         1 <0>         0.1481
     67 H29        -3.0586   -6.5519    8.6353 H         1 <0>         0.1408
     68 H30        -5.7369   -7.7467    6.1321 H         1 <0>         0.1340
     69 H31        -4.7229   -9.0726    6.7885 H         1 <0>         0.1348
     70 H32        -7.5419   -8.2234    7.6571 H         1 <0>         0.0980
     71 H33        -6.9401   -9.8732    7.2890 H         1 <0>         0.1170
     72 H34        -7.0403   -8.8085    9.8709 H         1 <0>         0.1051
     73 H35        -5.8861  -10.0806    9.3688 H         1 <0>         0.1042
     74 H36        -4.1487   -8.6070    9.5974 H         1 <0>         0.1313
     75 H37        -5.2966   -7.3481   10.1350 H         1 <0>         0.1324
     76 H38        -5.4267   -6.5074    8.0603 H         1 <0>         0.4337
@<TRIPOS>BOND
     1    1    2 1
     2    1   41 1
     3    1   42 1
     4    1   43 1
     5    2    3 1
     6    2    4 1
     7    2   13 1
     8    4    5 1
     9    4   44 1
    10    4   45 1
    11    5    6 1
    12    5   46 1
    13    5   47 1
    14    6   11 ar
    15    6    7 ar
    16    7    8 ar
    17    7   48 1
    18    8    9 ar
    19    8   49 1
    20    9   10 ar
    21    9   12 1
    22   10   11 ar
    23   10   50 1
    24   11   51 1
    25   12   52 1
    26   13   14 am
    27   13   53 1
    28   14   15 2
    29   14   16 1
    30   16   17 1
    31   16   54 1
    32   16   55 1
    33   17   26 2
    34   17   18 1
    35   18   23 ar
    36   18   19 ar
    37   19   20 ar
    38   19   56 1
    39   20   21 ar
    40   20   57 1
    41   21   22 ar
    42   21   33 1
    43   22   23 ar
    44   22   58 1
    45   23   24 1
    46   24   25 1
    47   24   26 1
    48   26   27 1
    49   27   32 ar
    50   27   28 ar
    51   28   29 ar
    52   28   59 1
    53   29   30 ar
    54   29   60 1
    55   30   31 ar
    56   30   61 1
    57   31   32 ar
    58   31   62 1
    59   32   63 1
    60   33   34 1
    61   34   35 1
    62   34   64 1
    63   34   65 1
    64   35   36 1
    65   35   66 1
    66   35   67 1
    67   36   40 1
    68   36   37 1
    69   36   76 1
    70   37   38 1
    71   37   68 1
    72   37   69 1
    73   38   39 1
    74   38   70 1
    75   38   71 1
    76   39   40 1
    77   39   72 1
    78   39   73 1
    79   40   74 1
    80   40   75 1
