@<TRIPOS>MOLECULE
CHEMBL371192
   65    68     0     0     0
SMALL
USER_CHARGES

@<TRIPOS>ATOM
      1 C1          0.8657   -0.4242    1.6810 C.3       1 <0>        -0.1457
      2 C2          0.5286   -1.5877    0.7463 C.3       1 <0>        -0.0798
      3 C3          1.0515   -1.2898   -0.6353 C.2       1 <0>        -0.0436
      4 C4          2.2318   -1.7106   -1.1082 C.2       1 <0>        -0.0759
      5 C5          2.3772   -1.2018   -2.5234 C.3       1 <0>        -0.0282
      6 C6          1.1137   -0.4256   -2.8053 C.ar      1 <0>        -0.0830
      7 C7          0.3320   -0.5034   -1.6480 C.ar      1 <0>        -0.0602
      8 C8         -0.9162    0.1295   -1.6219 C.ar      1 <0>        -0.0741
      9 C9         -1.3633    0.8152   -2.7300 C.ar      1 <0>        -0.1340
     10 C10        -0.5812    0.8821   -3.8757 C.ar      1 <0>         0.1140
     11 C11         0.6638    0.2638   -3.9054 C.ar      1 <0>        -0.1209
     12 O1         -1.0289    1.5598   -4.9648 O.3       1 <0>        -0.4938
     13 C12         3.5788   -0.2988   -2.6318 C.2       1 <0>         0.5404
     14 O2          3.9111    0.3847   -1.6865 O.2       1 <0>        -0.4988
     15 N1          4.2842   -0.2507   -3.7792 N.am      1 <0>        -0.6750
     16 C13         5.4567    0.5132   -3.8492 C.ar      1 <0>         0.1301
     17 C14         6.5226    0.0799   -4.6263 C.ar      1 <0>        -0.1036
     18 C15         7.6777    0.8334   -4.6952 C.ar      1 <0>        -0.1200
     19 C16         7.7734    2.0229   -3.9879 C.ar      1 <0>         0.0960
     20 C17         6.7090    2.4562   -3.2109 C.ar      1 <0>        -0.1815
     21 C18         5.5511    1.7067   -3.1460 C.ar      1 <0>        -0.0808
     22 O3          8.9113    2.7642   -4.0558 O.3       1 <0>        -0.3286
     23 C19         8.9408    3.9779   -3.3020 C.3       1 <0>         0.0242
     24 C20        10.2909    4.6695   -3.5015 C.3       1 <0>        -0.0014
     25 N2         10.4279    5.0804   -4.9052 N.4       1 <0>        -0.3886
     26 C21         9.4185    6.1011   -5.2173 C.3       1 <0>        -0.0545
     27 C22        11.7700    5.6360   -5.1241 C.3       1 <0>        -0.0474
     28 C23         3.2164   -2.5266   -0.3763 C.ar      1 <0>        -0.0446
     29 C24         3.4647   -3.8450   -0.7687 C.ar      1 <0>        -0.0877
     30 C25         4.3868   -4.6040   -0.0813 C.ar      1 <0>        -0.1457
     31 C26         5.0687   -4.0612    1.0001 C.ar      1 <0>         0.1129
     32 C27         4.8250   -2.7518    1.3941 C.ar      1 <0>        -0.1469
     33 C28         3.9093   -1.9829    0.7091 C.ar      1 <0>        -0.0709
     34 O4          5.9766   -4.8136    1.6750 O.3       1 <0>        -0.4982
     35 H1          1.9469   -0.2927    1.7222 H         1 <0>         0.0566
     36 H2          0.4027    0.4887    1.3063 H         1 <0>         0.0559
     37 H3          0.4874   -0.6396    2.6803 H         1 <0>         0.0623
     38 H4          0.9916   -2.5006    1.1210 H         1 <0>         0.0780
     39 H5         -0.5526   -1.7191    0.7051 H         1 <0>         0.0767
     40 H6          2.4689   -2.0376   -3.2170 H         1 <0>         0.1238
     41 H7         -1.5287    0.0799   -0.7338 H         1 <0>         0.1336
     42 H8         -2.3267    1.3027   -2.7078 H         1 <0>         0.1373
     43 H9          1.2715    0.3149   -4.7968 H         1 <0>         0.1285
     44 H10        -0.7782    2.4937   -4.9774 H         1 <0>         0.3928
     45 H11         3.9802   -0.7449   -4.5565 H         1 <0>         0.4144
     46 H12         6.4485   -0.8465   -5.1764 H         1 <0>         0.1396
     47 H13         8.5069    0.4965   -5.2996 H         1 <0>         0.1376
     48 H14         6.7845    3.3820   -2.6599 H         1 <0>         0.1299
     49 H15         4.7206    2.0466   -2.5450 H         1 <0>         0.1469
     50 H16         8.1415    4.6364   -3.6420 H         1 <0>         0.0866
     51 H17         8.8008    3.7524   -2.2448 H         1 <0>         0.1087
     52 H18        10.3478    5.5478   -2.8586 H         1 <0>         0.1492
     53 H19        11.0943    3.9789   -3.2451 H         1 <0>         0.1426
     54 H20         8.4226    5.6888   -5.0549 H         1 <0>         0.1216
     55 H21         9.5639    6.9657   -4.5698 H         1 <0>         0.1245
     56 H22         9.5201    6.4060   -6.2589 H         1 <0>         0.1273
     57 H23        12.5190    4.8786   -4.8925 H         1 <0>         0.1247
     58 H24        11.8716    5.9409   -6.1656 H         1 <0>         0.1258
     59 H25        11.9154    6.5006   -4.4766 H         1 <0>         0.1229
     60 H26         2.9345   -4.2682   -1.6090 H         1 <0>         0.1285
     61 H27         4.5794   -5.6228   -0.3838 H         1 <0>         0.1323
     62 H28         5.3574   -2.3341    2.2359 H         1 <0>         0.1307
     63 H29         3.7237   -0.9634    1.0135 H         1 <0>         0.1302
     64 H30         6.8766   -4.7497    1.3273 H         1 <0>         0.3920
     65 H31        10.2933    4.2800   -5.5047 H         1 <0>         0.4339
@<TRIPOS>BOND
     1    1    2 1
     2    1   35 1
     3    1   36 1
     4    1   37 1
     5    2    3 1
     6    2   38 1
     7    2   39 1
     8    3    7 1
     9    3    4 2
    10    4    5 1
    11    4   28 1
    12    5    6 1
    13    5   13 1
    14    5   40 1
    15    6   11 ar
    16    6    7 ar
    17    7    8 ar
    18    8    9 ar
    19    8   41 1
    20    9   10 ar
    21    9   42 1
    22   10   11 ar
    23   10   12 1
    24   11   43 1
    25   12   44 1
    26   13   14 2
    27   13   15 am
    28   15   16 1
    29   15   45 1
    30   16   21 ar
    31   16   17 ar
    32   17   18 ar
    33   17   46 1
    34   18   19 ar
    35   18   47 1
    36   19   20 ar
    37   19   22 1
    38   20   21 ar
    39   20   48 1
    40   21   49 1
    41   22   23 1
    42   23   24 1
    43   23   50 1
    44   23   51 1
    45   24   25 1
    46   24   52 1
    47   24   53 1
    48   25   26 1
    49   25   27 1
    50   25   65 1
    51   26   54 1
    52   26   55 1
    53   26   56 1
    54   27   57 1
    55   27   58 1
    56   27   59 1
    57   28   33 ar
    58   28   29 ar
    59   29   30 ar
    60   29   60 1
    61   30   31 ar
    62   30   61 1
    63   31   32 ar
    64   31   34 1
    65   32   33 ar
    66   32   62 1
    67   33   63 1
    68   34   64 1
