@<TRIPOS>MOLECULE
CHEMBL178857
   62    67     0     0     0
SMALL
USER_CHARGES

@<TRIPOS>ATOM
      1 C1         -0.6413    0.4377    0.7036 C.2       1 <0>        -0.2222
      2 C2          0.6351    0.9597    0.4419 C.2       1 <0>        -0.1106
      3 C3          1.5177   -0.0728    0.5816 C.2       1 <0>        -0.0863
      4 O1          0.8183   -1.1778    0.9135 O.3       1 <0>        -0.1620
      5 C4         -0.4839   -0.8739    0.9881 C.2       1 <0>        -0.0081
      6 C5          2.9711    0.0056    0.4019 C.2       1 <0>         0.6064
      7 O2          3.5054    1.0851    0.2281 O.2       1 <0>        -0.5162
      8 N1          3.7150   -1.1180    0.4291 N.am      1 <0>        -0.6057
      9 C6          3.0730   -2.4394    0.4684 C.3       1 <0>         0.0804
     10 C7          3.5983   -3.2746   -0.7058 C.3       1 <0>         0.1039
     11 N2          5.0660   -3.2002   -0.7154 N.pl3     1 <0>        -0.6202
     12 C8          5.7080   -1.8788   -0.7547 C.3       1 <0>         0.1030
     13 C9          5.1827   -1.0438    0.4138 C.3       1 <0>         0.0966
     14 C10         5.8338   -4.3598   -0.6874 C.ar      1 <0>         0.2564
     15 C11         5.2224   -5.6015   -0.8373 C.ar      1 <0>        -0.2134
     16 C12         5.9793   -6.7505   -0.8104 C.ar      1 <0>        -0.0042
     17 C13         7.3635   -6.6699   -0.6323 C.ar      1 <0>        -0.2262
     18 C14         7.9745   -5.4216   -0.4821 C.ar      1 <0>        -0.0078
     19 C15         7.2127   -4.2759   -0.5152 C.ar      1 <0>        -0.2128
     20 C16         8.1784   -7.9006   -0.6026 C.2       1 <0>         0.4655
     21 O3          7.6384   -8.9904   -0.6704 O.2       1 <0>        -0.4482
     22 C17         9.6345   -7.8113   -0.4916 C.2       1 <0>        -0.1541
     23 C18        10.4796   -7.7324   -1.6857 C.ar      1 <0>        -0.0710
     24 C19        10.0783   -7.7290   -3.0408 C.ar      1 <0>        -0.0571
     25 C20        11.0053   -7.6499   -4.0465 C.ar      1 <0>        -0.1382
     26 C21        12.3668   -7.5703   -3.7673 C.ar      1 <0>         0.1340
     27 C22        12.7907   -7.5711   -2.4482 C.ar      1 <0>        -0.1021
     28 C23        11.8617   -7.6510   -1.4321 C.ar      1 <0>        -0.1019
     29 S1         11.9882   -7.6810    0.3376 S.3       1 <0>         0.0846
     30 C24        10.2583   -7.7929    0.7490 C.2       1 <0>        -0.0550
     31 C25         9.6382   -7.8530    2.0852 C.ar      1 <0>        -0.0388
     32 C26         8.6282   -8.7832    2.3482 C.ar      1 <0>        -0.0717
     33 C27         8.0518   -8.8358    3.5981 C.ar      1 <0>        -0.1392
     34 C28         8.4723   -7.9658    4.5967 C.ar      1 <0>         0.1239
     35 C29         9.4755   -7.0393    4.3397 C.ar      1 <0>        -0.1468
     36 C30        10.0623   -6.9839    3.0948 C.ar      1 <0>        -0.0738
     37 O4          7.9008   -8.0209    5.8273 O.3       1 <0>        -0.4975
     38 O5         13.2714   -7.4930   -4.7790 O.3       1 <0>        -0.4909
     39 H1         -1.5734    0.9829    0.6857 H         1 <0>         0.1590
     40 H2          0.8730    1.9802    0.1806 H         1 <0>         0.1614
     41 H3         -1.2775   -1.5635    1.2352 H         1 <0>         0.2121
     42 H4          3.3153   -2.9360    1.4079 H         1 <0>         0.0791
     43 H5          1.9926   -2.3239    0.3808 H         1 <0>         0.1184
     44 H6          3.2853   -4.3118   -0.5859 H         1 <0>         0.1013
     45 H7          3.2057   -2.8773   -1.6418 H         1 <0>         0.0724
     46 H8          6.7884   -1.9943   -0.6671 H         1 <0>         0.1017
     47 H9          5.4657   -1.3822   -1.6943 H         1 <0>         0.0741
     48 H10         5.4953   -0.0069    0.2901 H         1 <0>         0.1082
     49 H11         5.5787   -1.4388    1.3493 H         1 <0>         0.0782
     50 H12         4.1529   -5.6632   -0.9744 H         1 <0>         0.1301
     51 H13         5.5044   -7.7136   -0.9264 H         1 <0>         0.1336
     52 H14         9.0436   -5.3561   -0.3440 H         1 <0>         0.1259
     53 H15         7.6846   -3.3109   -0.4032 H         1 <0>         0.1297
     54 H16         9.0284   -7.7897   -3.2865 H         1 <0>         0.1295
     55 H17        10.6739   -7.6497   -5.0743 H         1 <0>         0.1381
     56 H18        13.8439   -7.5102   -2.2169 H         1 <0>         0.1407
     57 H19         8.3003   -9.4593    1.5725 H         1 <0>         0.1363
     58 H20         7.2715   -9.5541    3.8022 H         1 <0>         0.1363
     59 H21         9.7987   -6.3645    5.1186 H         1 <0>         0.1362
     60 H22        10.8456   -6.2670    2.8974 H         1 <0>         0.1335
     61 H23         8.3858   -8.5658    6.4621 H         1 <0>         0.3952
     62 H24        13.4780   -6.5892   -5.0537 H         1 <0>         0.3963
@<TRIPOS>BOND
     1    1    5 2
     2    1    2 1
     3    1   39 1
     4    2    3 2
     5    2   40 1
     6    3    4 1
     7    3    6 1
     8    4    5 1
     9    5   41 1
    10    6    7 2
    11    6    8 am
    12    8   13 1
    13    8    9 1
    14    9   10 1
    15    9   42 1
    16    9   43 1
    17   10   11 1
    18   10   44 1
    19   10   45 1
    20   11   12 1
    21   11   14 1
    22   12   13 1
    23   12   46 1
    24   12   47 1
    25   13   48 1
    26   13   49 1
    27   14   19 ar
    28   14   15 ar
    29   15   16 ar
    30   15   50 1
    31   16   17 ar
    32   16   51 1
    33   17   18 ar
    34   17   20 1
    35   18   19 ar
    36   18   52 1
    37   19   53 1
    38   20   21 2
    39   20   22 1
    40   22   30 2
    41   22   23 1
    42   23   28 ar
    43   23   24 ar
    44   24   25 ar
    45   24   54 1
    46   25   26 ar
    47   25   55 1
    48   26   27 ar
    49   26   38 1
    50   27   28 ar
    51   27   56 1
    52   28   29 1
    53   29   30 1
    54   30   31 1
    55   31   36 ar
    56   31   32 ar
    57   32   33 ar
    58   32   57 1
    59   33   34 ar
    60   33   58 1
    61   34   35 ar
    62   34   37 1
    63   35   36 ar
    64   35   59 1
    65   36   60 1
    66   37   61 1
    67   38   62 1
