@<TRIPOS>MOLECULE
CHEMBL295907
   71    76     0     0     0
SMALL
USER_CHARGES

@<TRIPOS>ATOM
      1 C1          5.3420   -5.7687   -9.5698 C.ar      1 <0>        -0.1121
      2 C2          5.3686   -4.4159   -9.2819 C.ar      1 <0>        -0.1178
      3 C3          5.8148   -3.9782   -8.0515 C.ar      1 <0>        -0.1070
      4 C4          6.2388   -4.9024   -7.0977 C.ar      1 <0>        -0.0570
      5 C5          6.2092   -6.2645   -7.3934 C.ar      1 <0>        -0.1068
      6 C6          5.7614   -6.6904   -8.6273 C.ar      1 <0>        -0.1172
      7 C7          6.7196   -4.4385   -5.7743 C.ar      1 <0>        -0.0210
      8 C8          6.8480   -3.0727   -5.5190 C.ar      1 <0>        -0.1104
      9 C9          7.2938   -2.6404   -4.2909 C.ar      1 <0>        -0.0848
     10 C10         7.6182   -3.5707   -3.2985 C.ar      1 <0>        -0.0350
     11 C11         7.4890   -4.9391   -3.5560 C.ar      1 <0>        -0.0851
     12 C12         7.0379   -5.3679   -4.7834 C.ar      1 <0>        -0.1085
     13 C13         8.0964   -3.1094   -1.9825 C.2       1 <0>        -0.0495
     14 C14         7.6774   -3.5166   -0.7227 C.2       1 <0>        -0.1677
     15 C15         8.3146   -2.9023    0.4442 C.ar      1 <0>        -0.0736
     16 C16         8.0590   -3.1511    1.8118 C.ar      1 <0>        -0.0618
     17 C17         8.7441   -2.4889    2.7821 C.ar      1 <0>        -0.1360
     18 C18         9.7183   -1.5461    2.4658 C.ar      1 <0>         0.1373
     19 C19         9.9958   -1.2768    1.1351 C.ar      1 <0>        -0.0999
     20 C20         9.3035   -1.9453    0.1470 C.ar      1 <0>        -0.1034
     21 S1          9.3562   -1.9009   -1.6259 S.3       1 <0>         0.0999
     22 O1         10.3903   -0.8959    3.4524 O.3       1 <0>        -0.4909
     23 C21         6.6312   -4.5281   -0.5658 C.2       1 <0>         0.4641
     24 O2          6.9334   -5.6967   -0.4037 O.2       1 <0>        -0.4309
     25 C22         5.2091   -4.1315   -0.6042 C.ar      1 <0>        -0.1815
     26 C23         4.8603   -2.7807   -0.6841 C.ar      1 <0>        -0.0194
     27 C24         3.5331   -2.4151   -0.7196 C.ar      1 <0>        -0.1528
     28 C25         2.5410   -3.3876   -0.6760 C.ar      1 <0>         0.1479
     29 C26         2.8837   -4.7323   -0.5960 C.ar      1 <0>        -0.2149
     30 C27         4.2087   -5.1065   -0.5663 C.ar      1 <0>        -0.0165
     31 O3          1.2340   -3.0232   -0.7111 O.3       1 <0>        -0.3247
     32 C28         0.2663   -4.0624   -0.5512 C.3       1 <0>         0.0225
     33 C29        -1.1395   -3.4777   -0.7021 C.3       1 <0>        -0.0008
     34 N1         -1.3805   -2.4999    0.3674 N.4       1 <0>        -0.3843
     35 C30        -1.3888   -3.1874    1.6642 C.3       1 <0>        -0.0136
     36 C31        -1.5586   -2.1628    2.7879 C.3       1 <0>        -0.1454
     37 C32        -2.8821   -1.4168    2.5954 C.3       1 <0>        -0.1391
     38 C33        -2.8926   -0.7653    1.2096 C.3       1 <0>        -0.1466
     39 C34        -2.6734   -1.8417    0.1443 C.3       1 <0>        -0.0071
     40 H1          4.9882   -6.1069  -10.5325 H         1 <0>         0.1256
     41 H2          5.0400   -3.7009  -10.0215 H         1 <0>         0.1266
     42 H3          5.8358   -2.9218   -7.8281 H         1 <0>         0.1259
     43 H4          6.5368   -6.9849   -6.6585 H         1 <0>         0.1260
     44 H5          5.7384   -7.7453   -8.8576 H         1 <0>         0.1268
     45 H6          6.5977   -2.3545   -6.2857 H         1 <0>         0.1341
     46 H7          7.3933   -1.5832   -4.0937 H         1 <0>         0.1323
     47 H8          7.7392   -5.6589   -2.7906 H         1 <0>         0.1310
     48 H9          6.9337   -6.4246   -4.9811 H         1 <0>         0.1333
     49 H10         7.3092   -3.8768    2.0901 H         1 <0>         0.1262
     50 H11         8.5277   -2.6984    3.8193 H         1 <0>         0.1383
     51 H12        10.7485   -0.5478    0.8735 H         1 <0>         0.1433
     52 H13        11.1990   -1.3426    3.7378 H         1 <0>         0.3997
     53 H14         5.6306   -2.0245   -0.7176 H         1 <0>         0.1414
     54 H15         3.2628   -1.3713   -0.7810 H         1 <0>         0.1404
     55 H16         2.1099   -5.4849   -0.5616 H         1 <0>         0.1355
     56 H17         4.4742   -6.1518   -0.5091 H         1 <0>         0.1430
     57 H18         0.4252   -4.8271   -1.3115 H         1 <0>         0.1121
     58 H19         0.3706   -4.5069    0.4385 H         1 <0>         0.0899
     59 H20        -1.2263   -2.9855   -1.6707 H         1 <0>         0.1431
     60 H21        -1.8755   -4.2789   -0.6344 H         1 <0>         0.1501
     61 H22        -2.2150   -3.8978    1.6930 H         1 <0>         0.1305
     62 H23        -0.4476   -3.7205    1.7983 H         1 <0>         0.1275
     63 H24        -1.5663   -2.6754    3.7498 H         1 <0>         0.1124
     64 H25        -0.7327   -1.4520    2.7602 H         1 <0>         0.0881
     65 H26        -3.7115   -2.1197    2.6741 H         1 <0>         0.0821
     66 H27        -2.9813   -0.6470    3.3608 H         1 <0>         0.0949
     67 H28        -3.8539   -0.2791    1.0433 H         1 <0>         0.1132
     68 H29        -2.0945   -0.0255    1.1491 H         1 <0>         0.0881
     69 H30        -2.6806   -1.3813   -0.8437 H         1 <0>         0.1312
     70 H31        -3.4722   -2.5808    0.2055 H         1 <0>         0.1294
     71 H32        -0.6464   -1.8078    0.3606 H         1 <0>         0.4294
@<TRIPOS>BOND
     1    1    6 ar
     2    1    2 ar
     3    1   40 1
     4    2    3 ar
     5    2   41 1
     6    3    4 ar
     7    3   42 1
     8    4    5 ar
     9    4    7 1
    10    5    6 ar
    11    5   43 1
    12    6   44 1
    13    7   12 ar
    14    7    8 ar
    15    8    9 ar
    16    8   45 1
    17    9   10 ar
    18    9   46 1
    19   10   11 ar
    20   10   13 1
    21   11   12 ar
    22   11   47 1
    23   12   48 1
    24   13   21 1
    25   13   14 2
    26   14   15 1
    27   14   23 1
    28   15   20 ar
    29   15   16 ar
    30   16   17 ar
    31   16   49 1
    32   17   18 ar
    33   17   50 1
    34   18   19 ar
    35   18   22 1
    36   19   20 ar
    37   19   51 1
    38   20   21 1
    39   22   52 1
    40   23   24 2
    41   23   25 1
    42   25   30 ar
    43   25   26 ar
    44   26   27 ar
    45   26   53 1
    46   27   28 ar
    47   27   54 1
    48   28   29 ar
    49   28   31 1
    50   29   30 ar
    51   29   55 1
    52   30   56 1
    53   31   32 1
    54   32   33 1
    55   32   57 1
    56   32   58 1
    57   33   34 1
    58   33   59 1
    59   33   60 1
    60   34   39 1
    61   34   35 1
    62   34   71 1
    63   35   36 1
    64   35   61 1
    65   35   62 1
    66   36   37 1
    67   36   63 1
    68   36   64 1
    69   37   38 1
    70   37   65 1
    71   37   66 1
    72   38   39 1
    73   38   67 1
    74   38   68 1
    75   39   69 1
    76   39   70 1
