@<TRIPOS>MOLECULE
CHEMBL267385
   66    71     0     0     0
SMALL
USER_CHARGES

@<TRIPOS>ATOM
      1 C1          0.2884    0.9077   -0.2070 C.ar      1 <0>        -0.0857
      2 C2          1.4736    1.6106   -0.2117 C.ar      1 <0>        -0.1429
      3 C3          2.6847    0.9348   -0.1342 C.ar      1 <0>         0.1090
      4 C4          2.7074   -0.4516   -0.0516 C.ar      1 <0>        -0.1437
      5 C5          1.5274   -1.1631   -0.0462 C.ar      1 <0>        -0.0812
      6 C6          0.3062   -0.4875   -0.1240 C.ar      1 <0>        -0.0363
      7 C7         -0.9584   -1.2437   -0.1186 C.2       1 <0>        -0.0767
      8 C8         -1.8409   -1.3217   -1.1277 C.2       1 <0>        -0.0908
      9 C9         -2.9846   -2.1705   -0.7568 C.ar      1 <0>        -0.0545
     10 C10        -4.1319   -2.5461   -1.4621 C.ar      1 <0>        -0.1200
     11 C11        -5.0687   -3.3717   -0.8666 C.ar      1 <0>         0.1138
     12 C12        -4.8736   -3.8283    0.4306 C.ar      1 <0>        -0.1368
     13 C13        -3.7400   -3.4595    1.1331 C.ar      1 <0>        -0.0784
     14 C14        -2.8007   -2.6400    0.5505 C.ar      1 <0>        -0.0992
     15 C15        -1.4917   -2.0725    1.0135 C.3       1 <0>         0.0203
     16 C16        -0.5059   -3.1735    1.4238 C.3       1 <0>        -0.0617
     17 C17         0.2827   -2.5835    2.5761 C.ar      1 <0>        -0.1075
     18 C18         1.4808   -2.9870    3.1415 C.ar      1 <0>        -0.0636
     19 C19         2.0216   -2.2870    4.2010 C.ar      1 <0>        -0.1999
     20 C20         1.3626   -1.1736    4.7020 C.ar      1 <0>         0.1142
     21 C21         0.1635   -0.7699    4.1360 C.ar      1 <0>        -0.1277
     22 C22        -0.3768   -1.4743    3.0746 C.ar      1 <0>        -0.0445
     23 C23        -1.6550   -1.2435    2.2933 C.3       1 <0>        -0.0612
     24 O1          1.8911   -0.4810    5.7451 O.3       1 <0>        -0.3284
     25 C24         3.1293   -0.9553    6.2779 C.3       1 <0>         0.0270
     26 C25         3.5639   -0.0556    7.4366 C.3       1 <0>        -0.0009
     27 N1          2.5807   -0.1485    8.5241 N.4       1 <0>        -0.3840
     28 C26         2.9136    0.8288    9.5674 C.3       1 <0>        -0.0071
     29 C27         1.8474    0.7927   10.6644 C.3       1 <0>        -0.1467
     30 C28         1.7980   -0.6110   11.2746 C.3       1 <0>        -0.1390
     31 C29         1.5238   -1.6300   10.1649 C.3       1 <0>        -0.1453
     32 C30         2.6020   -1.5041    9.0865 C.3       1 <0>        -0.0130
     33 O2         -6.1836   -3.7368   -1.5527 O.3       1 <0>        -0.4968
     34 O3          3.8507    1.6320   -0.1396 O.3       1 <0>        -0.4970
     35 H1         -0.6529    1.4343   -0.2628 H         1 <0>         0.1291
     36 H2          1.4609    2.6886   -0.2761 H         1 <0>         0.1314
     37 H3          3.6515   -0.9727    0.0081 H         1 <0>         0.1287
     38 H4          1.5461   -2.2411    0.0176 H         1 <0>         0.1263
     39 H5         -1.7272   -0.8281   -2.0816 H         1 <0>         0.1383
     40 H6         -4.2868   -2.1919   -2.4705 H         1 <0>         0.1325
     41 H7         -5.6081   -4.4720    0.8918 H         1 <0>         0.1354
     42 H8         -3.5922   -3.8157    2.1419 H         1 <0>         0.1273
     43 H9         -1.0453   -4.0628    1.7498 H         1 <0>         0.0917
     44 H10         0.1587   -3.4153    0.5943 H         1 <0>         0.0852
     45 H11         1.9942   -3.8536    2.7518 H         1 <0>         0.1285
     46 H12         2.9557   -2.6056    4.6394 H         1 <0>         0.1275
     47 H13        -0.3506    0.0969    4.5244 H         1 <0>         0.1293
     48 H14        -1.7643   -0.1868    2.0490 H         1 <0>         0.0871
     49 H15        -2.5160   -1.5924    2.8636 H         1 <0>         0.0941
     50 H16         3.0024   -1.9761    6.6384 H         1 <0>         0.0858
     51 H17         3.8910   -0.9373    5.4984 H         1 <0>         0.1084
     52 H18         4.5396   -0.3776    7.8004 H         1 <0>         0.1486
     53 H19         3.6273    0.9763    7.0913 H         1 <0>         0.1421
     54 H20         3.8849    0.5841    9.9973 H         1 <0>         0.1291
     55 H21         2.9515    1.8269    9.1309 H         1 <0>         0.1309
     56 H22         2.0973    1.5178   11.4389 H         1 <0>         0.1131
     57 H23         0.8756    1.0376   10.2356 H         1 <0>         0.0879
     58 H24         2.7535   -0.8363   11.7484 H         1 <0>         0.0821
     59 H25         1.0016   -0.6577   12.0174 H         1 <0>         0.0947
     60 H26         1.5424   -2.6367   10.5824 H         1 <0>         0.1122
     61 H27         0.5453   -1.4355    9.7258 H         1 <0>         0.0878
     62 H28         2.4099   -2.2284    8.2949 H         1 <0>         0.1273
     63 H29         3.5799   -1.6991    9.5266 H         1 <0>         0.1301
     64 H30        -6.0813   -4.5507   -2.0648 H         1 <0>         0.3951
     65 H31         4.1610    1.8862    0.7402 H         1 <0>         0.3887
     66 H32         1.6602    0.0498    8.1617 H         1 <0>         0.4295
@<TRIPOS>BOND
     1    1    6 ar
     2    1    2 ar
     3    1   35 1
     4    2    3 ar
     5    2   36 1
     6    3    4 ar
     7    3   34 1
     8    4    5 ar
     9    4   37 1
    10    5    6 ar
    11    5   38 1
    12    6    7 1
    13    7   15 1
    14    7    8 2
    15    8    9 1
    16    8   39 1
    17    9   14 ar
    18    9   10 ar
    19   10   11 ar
    20   10   40 1
    21   11   12 ar
    22   11   33 1
    23   12   13 ar
    24   12   41 1
    25   13   14 ar
    26   13   42 1
    27   14   15 1
    28   15   23 1
    29   15   16 1
    30   16   17 1
    31   16   43 1
    32   16   44 1
    33   17   22 ar
    34   17   18 ar
    35   18   19 ar
    36   18   45 1
    37   19   20 ar
    38   19   46 1
    39   20   21 ar
    40   20   24 1
    41   21   22 ar
    42   21   47 1
    43   22   23 1
    44   23   48 1
    45   23   49 1
    46   24   25 1
    47   25   26 1
    48   25   50 1
    49   25   51 1
    50   26   27 1
    51   26   52 1
    52   26   53 1
    53   27   32 1
    54   27   28 1
    55   27   66 1
    56   28   29 1
    57   28   54 1
    58   28   55 1
    59   29   30 1
    60   29   56 1
    61   29   57 1
    62   30   31 1
    63   30   58 1
    64   30   59 1
    65   31   32 1
    66   31   60 1
    67   31   61 1
    68   32   62 1
    69   32   63 1
    70   33   64 1
    71   34   65 1
