@<TRIPOS>MOLECULE
CHEMBL434502
   78    82     0     0     0
SMALL
USER_CHARGES

@<TRIPOS>ATOM
      1 C1         -0.0184    1.5028    0.0103 C.3       1 <0>        -0.0656
      2 C2          0.0021   -0.0041    0.0020 C.2       1 <0>         0.0593
      3 N1         -1.0131   -0.8316    0.0019 N.2       1 <0>        -0.5028
      4 C3         -0.8336   -2.1374   -0.0059 C.2       1 <0>         0.0802
      5 C4          0.4492   -2.5821   -0.0139 C.2       1 <0>        -0.2363
      6 S1          1.3350   -1.0316   -0.0168 S.3       1 <0>         0.0993
      7 C5         -1.9989   -3.0929   -0.0056 C.3       1 <0>         0.1290
      8 N2         -2.4479   -3.3171    1.3750 N.3       1 <0>        -0.5297
      9 C6         -1.4169   -4.0116    2.1578 C.3       1 <0>         0.0386
     10 C7         -1.8458   -4.0648    3.6279 C.3       1 <0>         0.1358
     11 N3         -3.1888   -4.6600    3.7016 N.pl3     1 <0>        -0.5752
     12 C8         -4.2444   -4.1041    2.8414 C.3       1 <0>         0.1347
     13 C9         -3.7211   -4.0493    1.4022 C.3       1 <0>         0.0438
     14 C10        -3.4515   -5.7118    4.5555 C.ar      1 <0>         0.6573
     15 N4         -2.4856   -6.1969    5.3297 N.ar      1 <0>        -0.6823
     16 C11        -2.7387   -7.2100    6.1521 C.ar      1 <0>         0.6538
     17 N5         -3.9577   -7.7382    6.2006 N.ar      1 <0>        -0.6723
     18 C12        -4.9236   -7.2530    5.4270 C.ar      1 <0>         0.6530
     19 N6         -4.6717   -6.2364    4.6080 N.ar      1 <0>        -0.6776
     20 N7         -6.1890   -7.8017    5.4770 N.pl3     1 <0>        -0.5787
     21 C13        -7.2535   -7.2669    4.6243 C.3       1 <0>         0.1025
     22 C14        -6.4676   -8.9189    6.3827 C.3       1 <0>         0.1334
     23 C15        -6.9281   -8.3752    7.7367 C.3       1 <0>        -0.1263
     24 C16        -7.2191   -9.5420    8.6826 C.3       1 <0>        -0.0774
     25 C17        -7.6726   -9.0064   10.0162 C.ar      1 <0>        -0.0743
     26 C18        -6.7438   -8.7330   11.0030 C.ar      1 <0>        -0.1026
     27 C19        -7.1591   -8.2418   12.2263 C.ar      1 <0>        -0.1080
     28 C20        -8.5047   -8.0237   12.4632 C.ar      1 <0>        -0.0396
     29 C21        -9.4337   -8.2974   11.4752 C.ar      1 <0>        -0.1083
     30 C22        -9.0166   -8.7833   10.2503 C.ar      1 <0>        -0.1053
     31 Cl1        -9.0271   -7.4072   13.9997 Cl        1 <0>        -0.0714
     32 N8         -1.7358   -7.7138    6.9554 N.pl3     1 <0>        -0.6913
     33 C23        -2.0148   -8.8303    7.8618 C.3       1 <0>         0.1472
     34 C24        -0.7430   -9.1923    8.6315 C.3       1 <0>        -0.0935
     35 C25        -1.0299  -10.3409    9.5640 C.ar      1 <0>        -0.0895
     36 C26        -1.4680  -10.0917   10.8515 C.ar      1 <0>        -0.0954
     37 C27        -1.7312  -11.1429   11.7084 C.ar      1 <0>        -0.1426
     38 C28        -1.5562  -12.4494   11.2758 C.ar      1 <0>         0.1048
     39 C29        -1.1170  -12.6968    9.9833 C.ar      1 <0>        -0.1430
     40 C30        -0.8601  -11.6422    9.1287 C.ar      1 <0>        -0.0954
     41 O1         -1.8141  -13.4852   12.1170 O.3       1 <0>        -0.5003
     42 H1          1.0042    1.8801    0.0026 H         1 <0>         0.0841
     43 H2         -0.5455    1.8639   -0.8728 H         1 <0>         0.0912
     44 H3         -0.5286    1.8543    0.9071 H         1 <0>         0.0918
     45 H4          0.8286   -3.5932   -0.0206 H         1 <0>         0.1922
     46 H5         -2.8162   -2.6694   -0.5892 H         1 <0>         0.0933
     47 H6         -1.6912   -4.0413   -0.4460 H         1 <0>         0.0521
     48 H7         -1.2935   -5.0258    1.7779 H         1 <0>         0.0389
     49 H8         -0.4725   -3.4739    2.0736 H         1 <0>         0.0877
     50 H9         -1.1425   -4.6769    4.1926 H         1 <0>         0.1026
     51 H10        -1.8695   -3.0556    4.0392 H         1 <0>         0.0716
     52 H11        -5.1270   -4.7422    2.8861 H         1 <0>         0.1035
     53 H12        -4.4986   -3.0987    3.1771 H         1 <0>         0.0738
     54 H13        -4.4478   -3.5390    0.7701 H         1 <0>         0.0912
     55 H14        -3.5656   -5.0630    1.0329 H         1 <0>         0.0394
     56 H15        -7.2586   -7.7988    3.6729 H         1 <0>         0.0524
     57 H16        -8.2158   -7.3982    5.1191 H         1 <0>         0.0683
     58 H17        -7.0781   -6.2059    4.4465 H         1 <0>         0.0808
     59 H18        -7.2518   -9.5450    5.9569 H         1 <0>         0.0768
     60 H19        -5.5628   -9.5115    6.5178 H         1 <0>         0.0897
     61 H20        -6.1439   -7.7491    8.1625 H         1 <0>         0.0691
     62 H21        -7.8329   -7.7826    7.6016 H         1 <0>         0.0630
     63 H22        -8.0032  -10.1680    8.2568 H         1 <0>         0.0757
     64 H23        -6.3143  -10.1346    8.8177 H         1 <0>         0.0779
     65 H24        -5.6935   -8.9036   10.8181 H         1 <0>         0.1307
     66 H25        -6.4335   -8.0286   12.9973 H         1 <0>         0.1322
     67 H26       -10.4842   -8.1277   11.6597 H         1 <0>         0.1328
     68 H27        -9.7413   -8.9926    9.4774 H         1 <0>         0.1311
     69 H28        -0.8463   -7.3285    6.9197 H         1 <0>         0.4142
     70 H29        -2.7953   -8.5409    8.5654 H         1 <0>         0.0693
     71 H30        -2.3478   -9.6927    7.2843 H         1 <0>         0.0691
     72 H31         0.0376   -9.4818    7.9279 H         1 <0>         0.0809
     73 H32        -0.4100   -8.3300    9.2091 H         1 <0>         0.0811
     74 H33        -1.6041   -9.0745   11.1878 H         1 <0>         0.1270
     75 H34        -2.0727  -10.9477   12.7142 H         1 <0>         0.1290
     76 H35        -0.9799  -13.7130    9.6443 H         1 <0>         0.1290
     77 H36        -0.5224  -11.8343    8.1210 H         1 <0>         0.1270
     78 H37        -2.7262  -13.8042   12.0799 H         1 <0>         0.3918
@<TRIPOS>BOND
     1    1    2 1
     2    1   42 1
     3    1   43 1
     4    1   44 1
     5    2    6 1
     6    2    3 2
     7    3    4 1
     8    4    5 2
     9    4    7 1
    10    5    6 1
    11    5   45 1
    12    7    8 1
    13    7   46 1
    14    7   47 1
    15    8   13 1
    16    8    9 1
    17    9   10 1
    18    9   48 1
    19    9   49 1
    20   10   11 1
    21   10   50 1
    22   10   51 1
    23   11   12 1
    24   11   14 1
    25   12   13 1
    26   12   52 1
    27   12   53 1
    28   13   54 1
    29   13   55 1
    30   14   19 ar
    31   14   15 ar
    32   15   16 ar
    33   16   17 ar
    34   16   32 1
    35   17   18 ar
    36   18   19 ar
    37   18   20 1
    38   20   21 1
    39   20   22 1
    40   21   56 1
    41   21   57 1
    42   21   58 1
    43   22   23 1
    44   22   59 1
    45   22   60 1
    46   23   24 1
    47   23   61 1
    48   23   62 1
    49   24   25 1
    50   24   63 1
    51   24   64 1
    52   25   30 ar
    53   25   26 ar
    54   26   27 ar
    55   26   65 1
    56   27   28 ar
    57   27   66 1
    58   28   29 ar
    59   28   31 1
    60   29   30 ar
    61   29   67 1
    62   30   68 1
    63   32   33 1
    64   32   69 1
    65   33   34 1
    66   33   70 1
    67   33   71 1
    68   34   35 1
    69   34   72 1
    70   34   73 1
    71   35   40 ar
    72   35   36 ar
    73   36   37 ar
    74   36   74 1
    75   37   38 ar
    76   37   75 1
    77   38   39 ar
    78   38   41 1
    79   39   40 ar
    80   39   76 1
    81   40   77 1
    82   41   78 1
