@<TRIPOS>MOLECULE
CHEMBL90008
   41    43     0     0     0
SMALL
USER_CHARGES

@<TRIPOS>ATOM
      1 C1         -0.0016    1.5404   -0.0201 C.3       1 <0>        -0.1608
      2 C2          0.0082    0.0104   -0.0171 C.3       1 <0>        -0.1013
      3 C3         -1.4310   -0.5088   -0.0115 C.3       1 <0>        -0.1433
      4 C4          0.7287   -0.4974   -1.2677 C.3       1 <0>         0.2003
      5 C5          2.1457    0.0194   -1.2751 C.ar      1 <0>        -0.0985
      6 C6          2.3395    1.3719   -1.5240 C.ar      1 <0>        -0.0964
      7 C7          3.6094    1.9084   -1.5344 C.ar      1 <0>        -0.1489
      8 C8          4.7029    1.0891   -1.2925 C.ar      1 <0>         0.1094
      9 C9          4.5090   -0.2593   -1.0485 C.ar      1 <0>        -0.1489
     10 C10         3.2292   -0.7990   -1.0446 C.ar      1 <0>        -0.0479
     11 C11         3.0976   -2.2790   -0.7988 C.3       1 <0>        -0.1005
     12 C12         1.6801   -2.6322   -0.3513 C.3       1 <0>         0.1206
     13 N1          0.7376   -1.9641   -1.2640 N.pl3     1 <0>        -0.6222
     14 C13        -0.1135   -2.6976   -2.0937 C.ar      1 <0>         0.2262
     15 C14        -1.0693   -2.0451   -2.8620 C.ar      1 <0>        -0.1969
     16 C15        -1.9090   -2.7734   -3.6816 C.ar      1 <0>        -0.0717
     17 C16        -1.7995   -4.1508   -3.7376 C.ar      1 <0>        -0.1798
     18 C17        -0.8491   -4.8036   -2.9741 C.ar      1 <0>        -0.0715
     19 C18        -0.0024   -4.0809   -2.1567 C.ar      1 <0>        -0.1999
     20 O1          5.9587    1.6085   -1.2956 O.3       1 <0>        -0.4994
     21 H1          1.0238    1.9103   -0.0241 H         1 <0>         0.0695
     22 H2         -0.5205    1.8987   -0.9091 H         1 <0>         0.0572
     23 H3         -0.5149    1.9022    0.8708 H         1 <0>         0.0591
     24 H4          0.5272   -0.3479    0.8719 H         1 <0>         0.0724
     25 H5         -1.9500   -0.1504   -0.9006 H         1 <0>         0.0547
     26 H6         -1.4240   -1.5987   -0.0094 H         1 <0>         0.0591
     27 H7         -1.9443   -0.1470    0.8794 H         1 <0>         0.0545
     28 H8          0.2084   -0.1400   -2.1563 H         1 <0>         0.0968
     29 H9          1.4878    2.0090   -1.7115 H         1 <0>         0.1345
     30 H10         3.7524    2.9608   -1.7301 H         1 <0>         0.1304
     31 H11         5.3598   -0.8972   -0.8597 H         1 <0>         0.1277
     32 H12         3.3277   -2.8170   -1.7184 H         1 <0>         0.0827
     33 H13         3.8031   -2.5778   -0.0235 H         1 <0>         0.0852
     34 H14         1.5366   -3.7117   -0.3985 H         1 <0>         0.0903
     35 H15         1.5172   -2.2821    0.6680 H         1 <0>         0.0697
     36 H16        -1.1559   -0.9695   -2.8182 H         1 <0>         0.1195
     37 H17        -2.6523   -2.2667   -4.2792 H         1 <0>         0.1194
     38 H18        -2.4578   -4.7180   -4.3788 H         1 <0>         0.1170
     39 H19        -0.7662   -5.8794   -3.0201 H         1 <0>         0.1196
     40 H20         0.7426   -4.5909   -1.5640 H         1 <0>         0.1208
     41 H21         6.2555    1.9252   -0.4314 H         1 <0>         0.3914
@<TRIPOS>BOND
     1    1    2 1
     2    1   21 1
     3    1   22 1
     4    1   23 1
     5    2    3 1
     6    2    4 1
     7    2   24 1
     8    3   25 1
     9    3   26 1
    10    3   27 1
    11    4   13 1
    12    4    5 1
    13    4   28 1
    14    5   10 ar
    15    5    6 ar
    16    6    7 ar
    17    6   29 1
    18    7    8 ar
    19    7   30 1
    20    8    9 ar
    21    8   20 1
    22    9   10 ar
    23    9   31 1
    24   10   11 1
    25   11   12 1
    26   11   32 1
    27   11   33 1
    28   12   13 1
    29   12   34 1
    30   12   35 1
    31   13   14 1
    32   14   19 ar
    33   14   15 ar
    34   15   16 ar
    35   15   36 1
    36   16   17 ar
    37   16   37 1
    38   17   18 ar
    39   17   38 1
    40   18   19 ar
    41   18   39 1
    42   19   40 1
    43   20   41 1
