@<TRIPOS>MOLECULE
CHEMBL426073
   42    45     0     0     0
SMALL
USER_CHARGES

@<TRIPOS>ATOM
      1 C1         -0.0168    1.3910    0.0097 C.ar      1 <0>        -0.0765
      2 C2          1.1691    2.0950    0.0021 C.ar      1 <0>        -0.1419
      3 C3          2.3805    1.4174   -0.0131 C.ar      1 <0>         0.1154
      4 C4          2.4034    0.0295   -0.0207 C.ar      1 <0>        -0.1418
      5 C5          1.2217   -0.6816   -0.0133 C.ar      1 <0>        -0.0773
      6 C6          0.0021   -0.0041    0.0020 C.ar      1 <0>        -0.0238
      7 C7         -1.2688   -0.7636    0.0106 C.2       1 <0>        -0.1265
      8 C8         -2.2245   -0.7820    1.0445 C.2       1 <0>         0.1802
      9 N1         -3.2179   -1.5730    0.6844 N.2       1 <0>        -0.2605
     10 N2         -2.9509   -2.0959   -0.5857 N.pl3     1 <0>        -0.2902
     11 C9         -1.7476   -1.5926   -1.0097 C.2       1 <0>         0.2575
     12 N3         -1.2517   -1.9286   -2.2053 N.2       1 <0>        -0.3640
     13 C10        -1.9055   -2.7436   -3.0007 C.2       1 <0>         0.1122
     14 C11        -3.1404   -3.2762   -2.6051 C.2       1 <0>        -0.1290
     15 C12        -3.6491   -2.9492   -1.3915 C.2       1 <0>         0.1084
     16 C13        -4.9758   -3.5071   -0.9446 C.3       1 <0>         0.5274
     17 F1         -5.4864   -4.3488   -1.9385 F         1 <0>        -0.1528
     18 F2         -4.8014   -4.2341    0.2379 F         1 <0>        -0.1518
     19 F3         -5.8711   -2.4562   -0.7182 F         1 <0>        -0.1523
     20 C14        -1.3266   -3.1072   -4.3437 C.3       1 <0>         0.5322
     21 F4         -0.0987   -2.4585   -4.5134 F         1 <0>        -0.1496
     22 F5         -1.1356   -4.4916   -4.4099 F         1 <0>        -0.1577
     23 F6         -2.2079   -2.7092   -5.3547 F         1 <0>        -0.1576
     24 C15        -2.1307   -0.0375    2.3233 C.ar      1 <0>        -0.0444
     25 C16        -0.8908    0.1523    2.9318 C.ar      1 <0>        -0.0606
     26 C17        -0.8069    0.8450    4.1211 C.ar      1 <0>        -0.1455
     27 C18        -1.9555    1.3533    4.7127 C.ar      1 <0>         0.1296
     28 C19        -3.1917    1.1660    4.1092 C.ar      1 <0>        -0.1473
     29 C20        -3.2816    0.4791    2.9169 C.ar      1 <0>        -0.0622
     30 O1         -1.8696    2.0351    5.8848 O.3       1 <0>        -0.4976
     31 O2          3.5473    2.1147   -0.0209 O.3       1 <0>        -0.4986
     32 H1         -0.9589    1.9189    0.0260 H         1 <0>         0.1270
     33 H2          1.1553    3.1749    0.0077 H         1 <0>         0.1327
     34 H3          3.3478   -0.4942   -0.0329 H         1 <0>         0.1331
     35 H4          1.2403   -1.7614   -0.0196 H         1 <0>         0.1259
     36 H5         -3.6789   -3.9466   -3.2585 H         1 <0>         0.1957
     37 H6          0.0030   -0.2432    2.4723 H         1 <0>         0.1345
     38 H7          0.1533    0.9921    4.5932 H         1 <0>         0.1370
     39 H8         -4.0834    1.5626    4.5718 H         1 <0>         0.1372
     40 H9         -4.2430    0.3375    2.4457 H         1 <0>         0.1346
     41 H10        -1.7407    2.9874    5.7774 H         1 <0>         0.3961
     42 H11         3.8935    2.3121    0.8602 H         1 <0>         0.3927
@<TRIPOS>BOND
     1    1    6 ar
     2    1    2 ar
     3    1   32 1
     4    2    3 ar
     5    2   33 1
     6    3    4 ar
     7    3   31 1
     8    4    5 ar
     9    4   34 1
    10    5    6 ar
    11    5   35 1
    12    6    7 1
    13    7   11 2
    14    7    8 1
    15    8    9 2
    16    8   24 1
    17    9   10 1
    18   10   15 1
    19   10   11 1
    20   11   12 1
    21   12   13 2
    22   13   14 1
    23   13   20 1
    24   14   15 2
    25   14   36 1
    26   15   16 1
    27   16   17 1
    28   16   18 1
    29   16   19 1
    30   20   21 1
    31   20   22 1
    32   20   23 1
    33   24   29 ar
    34   24   25 ar
    35   25   26 ar
    36   25   37 1
    37   26   27 ar
    38   26   38 1
    39   27   28 ar
    40   27   30 1
    41   28   29 ar
    42   28   39 1
    43   29   40 1
    44   30   41 1
    45   31   42 1
