@<TRIPOS>MOLECULE
CHEMBL424725
   75    81     0     0     0
SMALL
USER_CHARGES

@<TRIPOS>ATOM
      1 C1         -0.1669    1.3382    0.8292 C.ar      1 <0>        -0.1187
      2 C2          1.0157    2.0461    0.7231 C.ar      1 <0>        -0.1159
      3 C3          2.2186    1.3718    0.6274 C.ar      1 <0>        -0.1174
      4 C4          2.2390   -0.0104    0.6383 C.ar      1 <0>        -0.0814
      5 C5          1.0564   -0.7182    0.7454 C.ar      1 <0>        -0.1155
      6 C6         -0.1466   -0.0439    0.8396 C.ar      1 <0>        -0.1148
      7 C7          3.5503   -0.7455    0.5331 C.3       1 <0>        -0.0608
      8 C8          4.1168   -0.9811    1.9346 C.3       1 <0>        -0.0310
      9 C9          3.1609   -1.8099    2.7970 C.3       1 <0>        -0.1083
     10 C10         3.0322   -3.2061    2.1802 C.3       1 <0>        -0.1689
     11 C11         4.3801   -3.8652    2.0677 C.2       1 <0>         0.3979
     12 O1          4.4595   -5.0763    2.1021 O.2       1 <0>        -0.4606
     13 C12         5.5617   -3.0888    1.9213 C.2       1 <0>        -0.1849
     14 C13         5.4441   -1.7217    1.8901 C.2       1 <0>         0.0605
     15 C14         6.4895   -0.6999    1.8509 C.ar      1 <0>        -0.1412
     16 C15         7.8325   -0.7729    1.3980 C.ar      1 <0>        -0.0474
     17 C16         8.6777    0.2730    1.4947 C.ar      1 <0>        -0.1120
     18 C17         8.2351    1.4926    2.0579 C.ar      1 <0>         0.1238
     19 C18         6.8365    1.6005    2.5043 C.ar      1 <0>        -0.2069
     20 C19         5.9849    0.4920    2.3604 C.ar      1 <0>         0.0356
     21 C20         4.5002    0.3406    2.6232 C.3       1 <0>        -0.0881
     22 C21         6.6850    2.8843    3.0057 C.2       1 <0>         0.1087
     23 N1          7.8616    3.5117    2.8865 N.pl3     1 <0>        -0.4181
     24 N2          8.8044    2.6557    2.3067 N.2       1 <0>        -0.3034
     25 H1          8.0351    4.4255    3.1617 H         1 <0>         0.4493
     26 C22         6.8880   -3.7394    1.8056 C.ar      1 <0>        -0.0339
     27 C23         7.6257   -3.6183    0.6281 C.ar      1 <0>        -0.0695
     28 C24         8.8597   -4.2247    0.5241 C.ar      1 <0>        -0.1416
     29 C25         9.3682   -4.9551    1.5897 C.ar      1 <0>         0.1126
     30 C26         8.6366   -5.0777    2.7633 C.ar      1 <0>        -0.1987
     31 C27         7.4041   -4.4695    2.8761 C.ar      1 <0>        -0.0524
     32 O2         10.5845   -5.5518    1.4836 O.3       1 <0>        -0.3283
     33 C28        11.0472   -6.2877    2.6178 C.3       1 <0>         0.0254
     34 C29        12.4234   -6.8827    2.3129 C.3       1 <0>        -0.0008
     35 N3         13.3898   -5.7972    2.0994 N.4       1 <0>        -0.3838
     36 C30        14.6690   -6.3633    1.6550 C.3       1 <0>        -0.0071
     37 C31        15.6544   -5.2321    1.3534 C.3       1 <0>        -0.1466
     38 C32        15.8746   -4.4026    2.6217 C.3       1 <0>        -0.1388
     39 C33        14.5239   -3.8787    3.1181 C.3       1 <0>        -0.1453
     40 C34        13.5804   -5.0600    3.3543 C.3       1 <0>        -0.0132
     41 H2         -1.1064    1.8651    0.9084 H         1 <0>         0.1226
     42 H3          0.9998    3.1259    0.7146 H         1 <0>         0.1223
     43 H4          3.1425    1.9248    0.5438 H         1 <0>         0.1206
     44 H5          1.0723   -1.7981    0.7535 H         1 <0>         0.1221
     45 H6         -1.0706   -0.5970    0.9228 H         1 <0>         0.1237
     46 H7          3.3907   -1.7043    0.0397 H         1 <0>         0.0821
     47 H8          4.2547   -0.1506   -0.0483 H         1 <0>         0.0825
     48 H9          3.5585   -1.8920    3.8085 H         1 <0>         0.0763
     49 H10         2.1826   -1.3300    2.8234 H         1 <0>         0.0909
     50 H11         2.3849   -3.8178    2.8087 H         1 <0>         0.1005
     51 H12         2.5905   -3.1206    1.1874 H         1 <0>         0.1034
     52 H13         8.1885   -1.6950    0.9627 H         1 <0>         0.1342
     53 H14         9.6942    0.1793    1.1419 H         1 <0>         0.1308
     54 H15         3.9495    1.1720    2.1832 H         1 <0>         0.1005
     55 H16         4.3079    0.2807    3.6945 H         1 <0>         0.0981
     56 H17         5.7794    3.3034    3.4186 H         1 <0>         0.1943
     57 H18         7.2306   -3.0506   -0.2014 H         1 <0>         0.1370
     58 H19         9.4313   -4.1316   -0.3876 H         1 <0>         0.1350
     59 H20         9.0350   -5.6466    3.5904 H         1 <0>         0.1272
     60 H21         6.8375   -4.5616    3.7910 H         1 <0>         0.1278
     61 H22        11.1216   -5.6217    3.4774 H         1 <0>         0.0858
     62 H23        10.3452   -7.0913    2.8406 H         1 <0>         0.1094
     63 H24        12.7474   -7.4978    3.1524 H         1 <0>         0.1483
     64 H25        12.3627   -7.4970    1.4145 H         1 <0>         0.1425
     65 H26        15.0766   -6.9998    2.4405 H         1 <0>         0.1288
     66 H27        14.5102   -6.9560    0.7542 H         1 <0>         0.1310
     67 H28        16.6042   -5.6546    1.0254 H         1 <0>         0.1127
     68 H29        15.2480   -4.5951    0.5679 H         1 <0>         0.0881
     69 H30        16.3286   -5.0269    3.3913 H         1 <0>         0.0817
     70 H31        16.5317   -3.5621    2.3981 H         1 <0>         0.0944
     71 H32        14.6656   -3.3338    4.0514 H         1 <0>         0.1118
     72 H33        14.0940   -3.2136    2.3692 H         1 <0>         0.0883
     73 H34        12.6179   -4.6906    3.7080 H         1 <0>         0.1277
     74 H35        14.0112   -5.7243    4.1035 H         1 <0>         0.1298
     75 H36        13.0382   -5.1695    1.3920 H         1 <0>         0.4296
@<TRIPOS>BOND
     1    1    6 ar
     2    1    2 ar
     3    1   41 1
     4    2    3 ar
     5    2   42 1
     6    3    4 ar
     7    3   43 1
     8    4    5 ar
     9    4    7 1
    10    5    6 ar
    11    5   44 1
    12    6   45 1
    13    7    8 1
    14    7   46 1
    15    7   47 1
    16    8   14 1
    17    8   21 1
    18    8    9 1
    19    9   10 1
    20    9   48 1
    21    9   49 1
    22   10   11 1
    23   10   50 1
    24   10   51 1
    25   11   12 2
    26   11   13 1
    27   13   14 2
    28   13   26 1
    29   14   15 1
    30   15   20 ar
    31   15   16 ar
    32   16   17 ar
    33   16   52 1
    34   17   18 ar
    35   17   53 1
    36   18   19 ar
    37   18   24 2
    38   19   20 ar
    39   19   22 2
    40   20   21 1
    41   21   54 1
    42   21   55 1
    43   22   56 1
    44   22   23 1
    45   23   25 1
    46   23   24 1
    47   26   31 ar
    48   26   27 ar
    49   27   28 ar
    50   27   57 1
    51   28   29 ar
    52   28   58 1
    53   29   30 ar
    54   29   32 1
    55   30   31 ar
    56   30   59 1
    57   31   60 1
    58   32   33 1
    59   33   34 1
    60   33   61 1
    61   33   62 1
    62   34   35 1
    63   34   63 1
    64   34   64 1
    65   35   40 1
    66   35   36 1
    67   35   75 1
    68   36   37 1
    69   36   65 1
    70   36   66 1
    71   37   38 1
    72   37   67 1
    73   37   68 1
    74   38   39 1
    75   38   69 1
    76   38   70 1
    77   39   40 1
    78   39   71 1
    79   39   72 1
    80   40   73 1
    81   40   74 1
