@<TRIPOS>MOLECULE
CHEMBL191836
   39    42     0     0     0
SMALL
USER_CHARGES

@<TRIPOS>ATOM
      1 C1         -0.0167    1.3802    0.0096 C.ar      1 <0>        -0.1071
      2 C2          1.1683    2.0959    0.0022 C.ar      1 <0>        -0.1180
      3 C3          2.3775    1.4340   -0.0129 C.ar      1 <0>        -0.0965
      4 C4          2.4049    0.0353   -0.0206 C.ar      1 <0>        -0.0549
      5 C5          1.2031   -0.6807   -0.0130 C.ar      1 <0>        -0.0879
      6 C6          0.0021   -0.0041    0.0020 C.ar      1 <0>        -0.1175
      7 C7          3.6933   -0.6802   -0.0372 C.2       1 <0>         0.0370
      8 C8          4.1689   -1.4929    0.9695 C.2       1 <0>        -0.1328
      9 C9          5.4886   -2.0136    0.5586 C.2       1 <0>         0.4413
     10 O1          6.2016   -2.7618    1.1983 O.2       1 <0>        -0.3970
     11 C10         5.7782   -1.4522   -0.7799 C.ar      1 <0>        -0.2197
     12 C11         4.6817   -0.6456   -1.1424 C.ar      1 <0>        -0.0085
     13 C12         4.6860    0.0056   -2.3638 C.ar      1 <0>        -0.1254
     14 C13         5.7723   -0.1415   -3.2326 C.ar      1 <0>         0.1601
     15 C14         6.8464   -0.9353   -2.8801 C.ar      1 <0>        -0.1774
     16 C15         6.8585   -1.5906   -1.6481 C.ar      1 <0>         0.2043
     17 O2          7.9124   -2.3702   -1.3030 O.3       1 <0>        -0.4850
     18 O3          5.7708    0.4990   -4.4289 O.3       1 <0>        -0.4905
     19 C16         3.4778   -1.7913    2.2407 C.ar      1 <0>        -0.0402
     20 C17         3.2411   -0.7713    3.1656 C.ar      1 <0>        -0.0765
     21 C18         2.5956   -1.0541    4.3501 C.ar      1 <0>        -0.1430
     22 C19         2.1811   -2.3509    4.6250 C.ar      1 <0>         0.1139
     23 C20         2.4148   -3.3681    3.7086 C.ar      1 <0>        -0.1428
     24 C21         3.0540   -3.0931    2.5189 C.ar      1 <0>        -0.0782
     25 O4          1.5455   -2.6253    5.7943 O.3       1 <0>        -0.4986
     26 H1         -0.9608    1.9045    0.0260 H         1 <0>         0.1255
     27 H2          1.1454    3.1757    0.0078 H         1 <0>         0.1277
     28 H3          3.3011    1.9937   -0.0191 H         1 <0>         0.1256
     29 H4          1.2161   -1.7606   -0.0192 H         1 <0>         0.1246
     30 H5         -0.9266   -0.5553    0.0082 H         1 <0>         0.1272
     31 H6          3.8496    0.6276   -2.6464 H         1 <0>         0.1430
     32 H7          7.6812   -1.0441   -3.5566 H         1 <0>         0.1496
     33 H8          7.8263   -3.2928   -1.5795 H         1 <0>         0.4030
     34 H9          6.1632    1.3824   -4.4026 H         1 <0>         0.4017
     35 H10         3.5637    0.2372    2.9529 H         1 <0>         0.1273
     36 H11         2.4122   -0.2662    5.0656 H         1 <0>         0.1325
     37 H12         2.0911   -4.3751    3.9266 H         1 <0>         0.1331
     38 H13         3.2310   -3.8837    1.8048 H         1 <0>         0.1277
     39 H14         0.5835   -2.5374    5.7491 H         1 <0>         0.3924
@<TRIPOS>BOND
     1    1    6 ar
     2    1    2 ar
     3    1   26 1
     4    2    3 ar
     5    2   27 1
     6    3    4 ar
     7    3   28 1
     8    4    5 ar
     9    4    7 1
    10    5    6 ar
    11    5   29 1
    12    6   30 1
    13    7   12 1
    14    7    8 2
    15    8    9 1
    16    8   19 1
    17    9   10 2
    18    9   11 1
    19   11   16 ar
    20   11   12 ar
    21   12   13 ar
    22   13   14 ar
    23   13   31 1
    24   14   15 ar
    25   14   18 1
    26   15   16 ar
    27   15   32 1
    28   16   17 1
    29   17   33 1
    30   18   34 1
    31   19   24 ar
    32   19   20 ar
    33   20   21 ar
    34   20   35 1
    35   21   22 ar
    36   21   36 1
    37   22   23 ar
    38   22   25 1
    39   23   24 ar
    40   23   37 1
    41   24   38 1
    42   25   39 1
