@<TRIPOS>MOLECULE
CHEMBL231812
   30    32     0     0     0
SMALL
USER_CHARGES

@<TRIPOS>ATOM
      1 C1         -0.0168    1.3912    0.0097 C.ar      1 <0>        -0.0842
      2 C2          1.1685    2.0950    0.0022 C.ar      1 <0>        -0.1442
      3 C3          2.3804    1.4171   -0.0131 C.ar      1 <0>         0.1115
      4 C4          2.4031    0.0286   -0.0207 C.ar      1 <0>        -0.1447
      5 C5          1.2218   -0.6819   -0.0137 C.ar      1 <0>        -0.0826
      6 C6          0.0021   -0.0041    0.0020 C.ar      1 <0>        -0.0624
      7 C7         -1.2686   -0.7634    0.0106 C.ar      1 <0>         0.0221
      8 C8         -2.2593   -0.4591    0.9406 C.ar      1 <0>        -0.1287
      9 C9         -3.4448   -1.1646    0.9514 C.ar      1 <0>        -0.0549
     10 C10        -3.6703   -2.1910    0.0336 C.ar      1 <0>        -0.0476
     11 C11        -2.6845   -2.5129   -0.9123 C.ar      1 <0>         0.0890
     12 C12        -1.4834   -1.7909   -0.9236 C.ar      1 <0>        -0.1238
     13 C13        -0.6905   -2.3631   -2.0159 C.2       1 <0>        -0.2088
     14 C14        -1.4425   -3.3344   -2.5539 C.2       1 <0>         0.0102
     15 O1         -2.6132   -3.4269   -1.8990 O.3       1 <0>        -0.1728
     16 C15        -4.9412   -2.9362    0.0576 C.2       1 <0>         0.1358
     17 N1         -5.1494   -3.8885   -0.7946 N.2       1 <0>        -0.3181
     18 O2         -6.3708   -4.6046   -0.7716 O.3       1 <0>        -0.4094
     19 O3          3.5466    2.1139   -0.0209 O.3       1 <0>        -0.4995
     20 H1         -0.9589    1.9191    0.0260 H         1 <0>         0.1314
     21 H2          1.1546    3.1749    0.0077 H         1 <0>         0.1327
     22 H3          3.3475   -0.4953   -0.0326 H         1 <0>         0.1321
     23 H4          1.2402   -1.7617   -0.0204 H         1 <0>         0.1296
     24 H5         -2.0987    0.3329    1.6572 H         1 <0>         0.1398
     25 H6         -4.2057   -0.9203    1.6778 H         1 <0>         0.1468
     26 H7          0.2996   -2.0627   -2.3252 H         1 <0>         0.1592
     27 H8         -1.1476   -3.9567   -3.3858 H         1 <0>         0.2102
     28 H9         -5.6990   -2.6881    0.7859 H         1 <0>         0.1302
     29 H10        -6.4342   -5.2958   -1.4449 H         1 <0>         0.4079
     30 H11         3.8928    2.3112    0.8602 H         1 <0>         0.3931
@<TRIPOS>BOND
     1    1    6 ar
     2    1    2 ar
     3    1   20 1
     4    2    3 ar
     5    2   21 1
     6    3    4 ar
     7    3   19 1
     8    4    5 ar
     9    4   22 1
    10    5    6 ar
    11    5   23 1
    12    6    7 1
    13    7   12 ar
    14    7    8 ar
    15    8    9 ar
    16    8   24 1
    17    9   10 ar
    18    9   25 1
    19   10   11 ar
    20   10   16 1
    21   11   15 1
    22   11   12 ar
    23   12   13 1
    24   13   14 2
    25   13   26 1
    26   14   15 1
    27   14   27 1
    28   16   17 2
    29   16   28 1
    30   17   18 1
    31   18   29 1
    32   19   30 1
