@<TRIPOS>MOLECULE
CHEMBL1087811
   66    71     0     0     0
SMALL
USER_CHARGES

@<TRIPOS>ATOM
      1 C1          0.0053    1.0918    0.2531 C.ar      1 <0>        -0.0569
      2 C2          1.1491    1.8662    0.2354 C.ar      1 <0>        -0.1383
      3 C3          2.3940    1.2606    0.1447 C.ar      1 <0>         0.1180
      4 C4          2.4867   -0.1217    0.0720 C.ar      1 <0>        -0.1974
      5 C5          1.3398   -0.8916    0.0900 C.ar      1 <0>        -0.0636
      6 C6          0.1003   -0.2856    0.1805 C.ar      1 <0>        -0.1298
      7 C7         -1.1492   -1.1280    0.2004 C.3       1 <0>         0.1890
      8 H1         -2.0102   -0.4991   -0.0260 H         1 <0>         0.1336
      9 C8         -1.3202   -1.7293    1.5686 C.2       1 <0>        -0.1102
     10 C9         -0.7732   -2.9366    1.8416 C.2       1 <0>        -0.0385
     11 C10        -0.9639   -3.5492    3.2020 C.3       1 <0>        -0.1221
     12 C11        -0.1111   -2.8235    4.2410 C.3       1 <0>         0.0757
     13 O1         -0.2031   -1.4131    4.0896 O.3       1 <0>        -0.3253
     14 C12        -1.4349   -0.8786    3.8886 C.ar      1 <0>         0.1312
     15 C13        -2.0408   -1.0102    2.6277 C.ar      1 <0>        -0.0821
     16 C14        -3.3033   -0.4643    2.4020 C.ar      1 <0>        -0.0748
     17 C15        -3.9531    0.2013    3.4210 C.ar      1 <0>        -0.1478
     18 C16        -3.3540    0.3281    4.6679 C.ar      1 <0>         0.1318
     19 C17        -2.0960   -0.2117    4.9012 C.ar      1 <0>        -0.1585
     20 O2         -4.0027    0.9844    5.6651 O.3       1 <0>        -0.4956
     21 C18        -0.0211   -3.6219    0.7822 C.ar      1 <0>        -0.1307
     22 C19         0.8392   -4.6813    1.0596 C.ar      1 <0>        -0.0558
     23 C20         1.5240   -5.2925    0.0294 C.ar      1 <0>        -0.1692
     24 C21         1.3579   -4.8542   -1.2789 C.ar      1 <0>         0.1493
     25 C22         0.5016   -3.7990   -1.5639 C.ar      1 <0>        -0.1744
     26 C23        -0.1911   -3.1803   -0.5423 C.ar      1 <0>         0.1491
     27 O3         -1.0418   -2.1529   -0.7880 O.3       1 <0>        -0.2943
     28 O4          2.0382   -5.4621   -2.2857 O.3       1 <0>        -0.4959
     29 O5          3.5208    2.0202    0.1267 O.3       1 <0>        -0.3281
     30 C24         4.7678    1.3288    0.0317 C.3       1 <0>         0.0249
     31 C25         5.9137    2.3426    0.0252 C.3       1 <0>         0.0004
     32 N1          5.9485    3.0506    1.3118 N.4       1 <0>        -0.3871
     33 C26         6.9494    4.1248    1.2531 C.3       1 <0>        -0.0435
     34 C27         6.9835    4.8610    2.5947 C.3       1 <0>         0.0354
     35 O6          7.2758    3.9271    3.6378 O.3       1 <0>        -0.3558
     36 C28         6.3411    2.8476    3.7200 C.3       1 <0>         0.0373
     37 C29         6.3058    2.1075    2.3805 C.3       1 <0>        -0.0501
     38 H2         -0.9638    1.5626    0.3282 H         1 <0>         0.1377
     39 H3          1.0744    2.9421    0.2918 H         1 <0>         0.1358
     40 H4          3.4546   -0.5955    0.0009 H         1 <0>         0.1275
     41 H5          1.4114   -1.9678    0.0334 H         1 <0>         0.1338
     42 H6         -2.0141   -3.4769    3.4849 H         1 <0>         0.0866
     43 H7         -0.6728   -4.5990    3.1676 H         1 <0>         0.0954
     44 H8         -0.4531   -3.0985    5.2387 H         1 <0>         0.0655
     45 H9          0.9291   -3.1279    4.1247 H         1 <0>         0.1014
     46 H10        -3.7708   -0.5615    1.4333 H         1 <0>         0.1361
     47 H11        -4.9312    0.6255    3.2484 H         1 <0>         0.1382
     48 H12        -1.6353   -0.1099    5.8727 H         1 <0>         0.1387
     49 H13        -4.5637    0.4159    6.2103 H         1 <0>         0.3978
     50 H14         0.9700   -5.0225    2.0759 H         1 <0>         0.1360
     51 H15         2.1919   -6.1145    0.2406 H         1 <0>         0.1375
     52 H16         0.3777   -3.4628   -2.5827 H         1 <0>         0.1425
     53 H17         1.5686   -6.2080   -2.6835 H         1 <0>         0.4006
     54 H18         4.8787    0.6606    0.8856 H         1 <0>         0.0860
     55 H19         4.7916    0.7476   -0.8901 H         1 <0>         0.1113
     56 H20         6.8588    1.8217   -0.1286 H         1 <0>         0.1508
     57 H21         5.7593    3.0604   -0.7805 H         1 <0>         0.1450
     58 H22         7.9306    3.6967    1.0482 H         1 <0>         0.1401
     59 H23         6.6852    4.8250    0.4606 H         1 <0>         0.1441
     60 H24         7.7552    5.6304    2.5681 H         1 <0>         0.1433
     61 H25         6.0141    5.3232    2.7810 H         1 <0>         0.0819
     62 H26         6.6479    2.1597    4.5079 H         1 <0>         0.1427
     63 H27         5.3497    3.2408    3.9448 H         1 <0>         0.0820
     64 H28         5.5638    1.3103    2.4250 H         1 <0>         0.1398
     65 H29         7.2873    1.6802    2.1752 H         1 <0>         0.1414
     66 H30         5.0403    3.4468    1.5025 H         1 <0>         0.4304
@<TRIPOS>BOND
     1    1    6 ar
     2    1    2 ar
     3    1   38 1
     4    2    3 ar
     5    2   39 1
     6    3    4 ar
     7    3   29 1
     8    4    5 ar
     9    4   40 1
    10    5    6 ar
    11    5   41 1
    12    6    7 1
    13    7    8 1
    14    7   27 1
    15    7    9 1
    16    9   15 1
    17    9   10 2
    18   10   11 1
    19   10   21 1
    20   11   12 1
    21   11   42 1
    22   11   43 1
    23   12   13 1
    24   12   44 1
    25   12   45 1
    26   13   14 1
    27   14   19 ar
    28   14   15 ar
    29   15   16 ar
    30   16   17 ar
    31   16   46 1
    32   17   18 ar
    33   17   47 1
    34   18   19 ar
    35   18   20 1
    36   19   48 1
    37   20   49 1
    38   21   26 ar
    39   21   22 ar
    40   22   23 ar
    41   22   50 1
    42   23   24 ar
    43   23   51 1
    44   24   25 ar
    45   24   28 1
    46   25   26 ar
    47   25   52 1
    48   26   27 1
    49   28   53 1
    50   29   30 1
    51   30   31 1
    52   30   54 1
    53   30   55 1
    54   31   32 1
    55   31   56 1
    56   31   57 1
    57   32   37 1
    58   32   33 1
    59   32   66 1
    60   33   34 1
    61   33   58 1
    62   33   59 1
    63   34   35 1
    64   34   60 1
    65   34   61 1
    66   35   36 1
    67   36   37 1
    68   36   62 1
    69   36   63 1
    70   37   64 1
    71   37   65 1
