@<TRIPOS>MOLECULE
CHEMBL418327
   61    65     0     0     0
SMALL
USER_CHARGES

@<TRIPOS>ATOM
      1 C1         -2.1286   -3.5783   -2.5392 C.ar      1 <0>        -0.0845
      2 C2         -1.7991   -4.4613   -3.5449 C.ar      1 <0>        -0.1416
      3 C3         -0.5463   -4.4019   -4.1412 C.ar      1 <0>         0.1155
      4 C4          0.3801   -3.4536   -3.7278 C.ar      1 <0>        -0.1435
      5 C5          0.0600   -2.5667   -2.7225 C.ar      1 <0>        -0.0735
      6 C6         -1.1996   -2.6223   -2.1197 C.ar      1 <0>        -0.0318
      7 C7         -1.5476   -1.6745   -1.0439 C.2       1 <0>        -0.1762
      8 C8         -0.7561   -1.5599    0.0413 C.2       1 <0>         0.1416
      9 O1         -0.9789   -0.7153    1.0590 O.3       1 <0>        -0.2464
     10 C9         -2.1854   -0.2095    1.3974 C.ar      1 <0>         0.1106
     11 C10        -2.3852    0.2279    2.7011 C.ar      1 <0>        -0.1013
     12 C11        -3.6025    0.7594    3.0831 C.ar      1 <0>        -0.1066
     13 C12        -4.6386    0.8619    2.1678 C.ar      1 <0>         0.1086
     14 C13        -4.4501    0.4249    0.8642 C.ar      1 <0>        -0.0868
     15 C14        -3.2310   -0.1111    0.4833 C.ar      1 <0>        -0.1569
     16 S1         -2.9984   -0.6787   -1.1728 S.3       1 <0>         0.0397
     17 O2         -5.8342    1.3879    2.5458 O.3       1 <0>        -0.4905
     18 C15         0.4367   -2.4218    0.1141 C.ar      1 <0>        -0.0659
     19 C16         1.6883   -1.8653    0.3960 C.ar      1 <0>        -0.0447
     20 C17         2.8007   -2.6760    0.4634 C.ar      1 <0>        -0.1426
     21 C18         2.6804   -4.0433    0.2520 C.ar      1 <0>         0.1299
     22 C19         1.4397   -4.6010   -0.0282 C.ar      1 <0>        -0.2000
     23 C20         0.3202   -3.8000   -0.0927 C.ar      1 <0>        -0.0366
     24 O3          3.7806   -4.8384    0.3192 O.3       1 <0>        -0.3260
     25 C21         3.5862   -6.2357    0.0916 C.3       1 <0>         0.0241
     26 C22         4.9274   -6.9628    0.2075 C.3       1 <0>        -0.0008
     27 N1          5.4360   -6.8364    1.5799 N.4       1 <0>        -0.3842
     28 C23         6.7946   -7.3876    1.6493 C.3       1 <0>        -0.0070
     29 C24         7.3598   -7.1853    3.0569 C.3       1 <0>        -0.1466
     30 C25         6.4633   -7.9041    4.0692 C.3       1 <0>        -0.1390
     31 C26         5.0329   -7.3736    3.9364 C.3       1 <0>        -0.1454
     32 C27         4.5539   -7.5689    2.4963 C.3       1 <0>        -0.0134
     33 O4         -0.2258   -5.2749   -5.1322 O.3       1 <0>        -0.5014
     34 H1         -3.1047   -3.6224   -2.0791 H         1 <0>         0.1336
     35 H2         -2.5163   -5.2007   -3.8695 H         1 <0>         0.1348
     36 H3          1.3532   -3.4112   -4.1944 H         1 <0>         0.1309
     37 H4          0.7812   -1.8298   -2.4014 H         1 <0>         0.1273
     38 H5         -1.5837    0.1516    3.4210 H         1 <0>         0.1451
     39 H6         -3.7473    1.0958    4.0991 H         1 <0>         0.1475
     40 H7         -5.2539    0.5025    0.1469 H         1 <0>         0.1451
     41 H8         -5.8980    2.3454    2.4262 H         1 <0>         0.3977
     42 H9          1.7831   -0.8021    0.5601 H         1 <0>         0.1427
     43 H10         3.7679   -2.2472    0.6807 H         1 <0>         0.1391
     44 H11         1.3515   -5.6649   -0.1921 H         1 <0>         0.1325
     45 H12        -0.6448   -4.2352   -0.3066 H         1 <0>         0.1336
     46 H13         2.8930   -6.6317    0.8337 H         1 <0>         0.0872
     47 H14         3.1757   -6.3876   -0.9066 H         1 <0>         0.1114
     48 H15         4.7913   -8.0170   -0.0339 H         1 <0>         0.1495
     49 H16         5.6417   -6.5204   -0.4868 H         1 <0>         0.1432
     50 H17         6.7664   -8.4526    1.4192 H         1 <0>         0.1292
     51 H18         7.4306   -6.8773    0.9261 H         1 <0>         0.1312
     52 H19         8.3679   -7.5968    3.1069 H         1 <0>         0.1131
     53 H20         7.3887   -6.1205    3.2879 H         1 <0>         0.0880
     54 H21         6.4746   -8.9756    3.8698 H         1 <0>         0.0821
     55 H22         6.8296   -7.7161    5.0785 H         1 <0>         0.0947
     56 H23         4.3777   -7.9197    4.6152 H         1 <0>         0.1122
     57 H24         5.0135   -6.3127    4.1858 H         1 <0>         0.0879
     58 H25         3.5356   -7.1925    2.3984 H         1 <0>         0.1272
     59 H26         4.5734   -8.6301    2.2482 H         1 <0>         0.1305
     60 H27        -0.4459   -4.9605   -6.0198 H         1 <0>         0.3968
     61 H28         5.4566   -5.8621    1.8414 H         1 <0>         0.4293
@<TRIPOS>BOND
     1    1    6 ar
     2    1    2 ar
     3    1   34 1
     4    2    3 ar
     5    2   35 1
     6    3    4 ar
     7    3   33 1
     8    4    5 ar
     9    4   36 1
    10    5    6 ar
    11    5   37 1
    12    6    7 1
    13    7   16 1
    14    7    8 2
    15    8    9 1
    16    8   18 1
    17    9   10 1
    18   10   15 ar
    19   10   11 ar
    20   11   12 ar
    21   11   38 1
    22   12   13 ar
    23   12   39 1
    24   13   14 ar
    25   13   17 1
    26   14   15 ar
    27   14   40 1
    28   15   16 1
    29   17   41 1
    30   18   23 ar
    31   18   19 ar
    32   19   20 ar
    33   19   42 1
    34   20   21 ar
    35   20   43 1
    36   21   22 ar
    37   21   24 1
    38   22   23 ar
    39   22   44 1
    40   23   45 1
    41   24   25 1
    42   25   26 1
    43   25   46 1
    44   25   47 1
    45   26   27 1
    46   26   48 1
    47   26   49 1
    48   27   32 1
    49   27   28 1
    50   27   61 1
    51   28   29 1
    52   28   50 1
    53   28   51 1
    54   29   30 1
    55   29   52 1
    56   29   53 1
    57   30   31 1
    58   30   54 1
    59   30   55 1
    60   31   32 1
    61   31   56 1
    62   31   57 1
    63   32   58 1
    64   32   59 1
    65   33   60 1
