@<TRIPOS>MOLECULE
CHEMBL35073
   63    67     0     0     0
SMALL
USER_CHARGES

@<TRIPOS>ATOM
      1 C1         -1.8255    0.2471    1.1173 C.ar      1 <0>        -0.0734
      2 C2         -1.8017    1.6262    1.1026 C.ar      1 <0>        -0.1430
      3 C3         -0.8367    2.2974    0.3646 C.ar      1 <0>         0.1108
      4 C4          0.1074    1.5841   -0.3609 C.ar      1 <0>        -0.1456
      5 C5          0.0891    0.2048   -0.3510 C.ar      1 <0>        -0.0829
      6 C6         -0.8786   -0.4726    0.3896 C.ar      1 <0>        -0.0219
      7 C7         -0.9011   -1.9548    0.4030 C.2       1 <0>        -0.2657
      8 C8         -0.6530   -2.6667    1.6075 C.2       1 <0>         0.4406
      9 O1         -0.4176   -2.0826    2.6525 O.2       1 <0>        -0.4491
     10 C9         -0.6918   -4.1394    1.5444 C.ar      1 <0>        -0.2228
     11 C10        -0.4602   -4.9164    2.6803 C.ar      1 <0>        -0.0096
     12 C11        -0.5032   -6.2787    2.5909 C.ar      1 <0>        -0.1641
     13 C12        -0.7765   -6.8956    1.3724 C.ar      1 <0>         0.1754
     14 C13        -1.0080   -6.1380    0.2364 C.ar      1 <0>        -0.1673
     15 C14        -0.9686   -4.7527    0.3115 C.ar      1 <0>         0.1686
     16 O2         -1.1931   -3.9978   -0.7844 O.3       1 <0>        -0.2459
     17 C15        -1.1689   -2.6597   -0.7534 C.2       1 <0>         0.3457
     18 O3         -1.4090   -1.9771   -1.8918 O.3       1 <0>        -0.1921
     19 C16        -1.5714   -2.6873   -3.0397 C.ar      1 <0>         0.0358
     20 C17        -2.7676   -3.3459   -3.2846 C.ar      1 <0>        -0.0713
     21 C18        -2.9324   -4.0674   -4.4507 C.ar      1 <0>        -0.1266
     22 C19        -1.9018   -4.1339   -5.3768 C.ar      1 <0>         0.1288
     23 C20        -0.7057   -3.4754   -5.1320 C.ar      1 <0>        -0.1895
     24 C21        -0.5429   -2.7488   -3.9688 C.ar      1 <0>        -0.0638
     25 O4         -2.0638   -4.8449   -6.5243 O.3       1 <0>        -0.3240
     26 C22        -0.9613   -4.8702   -7.4330 C.3       1 <0>         0.0229
     27 C23        -1.3278   -5.7129   -8.6563 C.3       1 <0>        -0.0008
     28 N1         -2.4404   -5.0763   -9.3738 N.4       1 <0>        -0.3847
     29 C24        -2.8968   -5.9626  -10.4512 C.3       1 <0>        -0.0070
     30 C25        -4.1076   -5.3406  -11.1501 C.3       1 <0>        -0.1468
     31 C26        -3.7097   -3.9834  -11.7375 C.3       1 <0>        -0.1392
     32 C27        -3.1657   -3.0929  -10.6167 C.3       1 <0>        -0.1456
     33 C28        -1.9897   -3.7982   -9.9376 C.3       1 <0>        -0.0134
     34 O5         -0.8158   -8.2505    1.2975 O.3       1 <0>        -0.4892
     35 O6         -0.8164    3.6566    0.3519 O.3       1 <0>        -0.5007
     36 H1         -2.5739   -0.2746    1.6953 H         1 <0>         0.1257
     37 H2         -2.5350    2.1844    1.6657 H         1 <0>         0.1320
     38 H3          0.8569    2.1095   -0.9341 H         1 <0>         0.1301
     39 H4          0.8235   -0.3496   -0.9163 H         1 <0>         0.1216
     40 H5         -0.2472   -4.4420    3.6269 H         1 <0>         0.1534
     41 H6         -0.3240   -6.8806    3.4695 H         1 <0>         0.1482
     42 H7         -1.2190   -6.6236   -0.7049 H         1 <0>         0.1488
     43 H8         -3.5697   -3.2948   -2.5633 H         1 <0>         0.1462
     44 H9         -3.8636   -4.5801   -4.6414 H         1 <0>         0.1453
     45 H10         0.0966   -3.5272   -5.8530 H         1 <0>         0.1400
     46 H11         0.3867   -2.2324   -3.7802 H         1 <0>         0.1451
     47 H12        -0.7274   -3.8536   -7.7489 H         1 <0>         0.0893
     48 H13        -0.0930   -5.3059   -6.9387 H         1 <0>         0.1121
     49 H14        -0.4646   -5.7880   -9.3176 H         1 <0>         0.1506
     50 H15        -1.6266   -6.7104   -8.3341 H         1 <0>         0.1436
     51 H16        -2.0920   -6.1000  -11.1734 H         1 <0>         0.1295
     52 H17        -3.1766   -6.9291  -10.0320 H         1 <0>         0.1313
     53 H18        -4.4438   -5.9993  -11.9508 H         1 <0>         0.1134
     54 H19        -4.9132   -5.2029  -10.4288 H         1 <0>         0.0880
     55 H20        -2.9398   -4.1261  -12.4958 H         1 <0>         0.0823
     56 H21        -4.5828   -3.5108  -12.1872 H         1 <0>         0.0951
     57 H22        -2.8286   -2.1450  -11.0361 H         1 <0>         0.1127
     58 H23        -3.9517   -2.9086   -9.8843 H         1 <0>         0.0880
     59 H24        -1.5999   -3.1668   -9.1392 H         1 <0>         0.1271
     60 H25        -1.2043   -3.9818  -10.6707 H         1 <0>         0.1308
     61 H26        -1.6906   -8.6283    1.4620 H         1 <0>         0.4040
     62 H27        -0.2732    4.0483    1.0495 H         1 <0>         0.3938
     63 H28        -3.2016   -4.9101   -8.7326 H         1 <0>         0.4292
@<TRIPOS>BOND
     1    1    6 ar
     2    1    2 ar
     3    1   36 1
     4    2    3 ar
     5    2   37 1
     6    3    4 ar
     7    3   35 1
     8    4    5 ar
     9    4   38 1
    10    5    6 ar
    11    5   39 1
    12    6    7 1
    13    7   17 2
    14    7    8 1
    15    8    9 2
    16    8   10 1
    17   10   15 ar
    18   10   11 ar
    19   11   12 ar
    20   11   40 1
    21   12   13 ar
    22   12   41 1
    23   13   14 ar
    24   13   34 1
    25   14   15 ar
    26   14   42 1
    27   15   16 1
    28   16   17 1
    29   17   18 1
    30   18   19 1
    31   19   24 ar
    32   19   20 ar
    33   20   21 ar
    34   20   43 1
    35   21   22 ar
    36   21   44 1
    37   22   23 ar
    38   22   25 1
    39   23   24 ar
    40   23   45 1
    41   24   46 1
    42   25   26 1
    43   26   27 1
    44   26   47 1
    45   26   48 1
    46   27   28 1
    47   27   49 1
    48   27   50 1
    49   28   33 1
    50   28   29 1
    51   28   63 1
    52   29   30 1
    53   29   51 1
    54   29   52 1
    55   30   31 1
    56   30   53 1
    57   30   54 1
    58   31   32 1
    59   31   55 1
    60   31   56 1
    61   32   33 1
    62   32   57 1
    63   32   58 1
    64   33   59 1
    65   33   60 1
    66   34   61 1
    67   35   62 1
