@<TRIPOS>MOLECULE
CHEMBL395308
   33    35     0     0     0
SMALL
USER_CHARGES

@<TRIPOS>ATOM
      1 C1         -0.0166    1.3590   -0.0162 C.ar      1 <0>        -0.1134
      2 C2          1.1686    2.0898   -0.0234 C.ar      1 <0>        -0.1140
      3 C3          2.3784    1.4629   -0.0304 C.ar      1 <0>        -0.1123
      4 C4          2.4339    0.0615   -0.0299 C.ar      1 <0>        -0.0445
      5 C5          1.2288   -0.6796   -0.0222 C.ar      1 <0>        -0.0254
      6 C6          0.0019   -0.0040   -0.0156 C.ar      1 <0>        -0.1166
      7 C7          1.2938   -2.1398   -0.0218 C.ar      1 <0>        -0.0575
      8 C8          2.5387   -2.7592   -0.0290 C.ar      1 <0>        -0.0667
      9 C9          3.7021   -2.0096   -0.0360 C.ar      1 <0>        -0.1143
     10 C10         3.6716   -0.6253   -0.0366 C.ar      1 <0>        -0.0088
     11 C11         4.9382    0.1393   -0.0448 C.ar      1 <0>        -0.0626
     12 C12         5.1283    1.1686   -0.9684 C.ar      1 <0>        -0.0878
     13 C13         6.3094    1.8790   -0.9726 C.ar      1 <0>        -0.1443
     14 C14         7.3100    1.5716   -0.0597 C.ar      1 <0>         0.1115
     15 C15         7.1248    0.5478    0.8604 C.ar      1 <0>        -0.1435
     16 C16         5.9439   -0.1629    0.8749 C.ar      1 <0>        -0.0845
     17 O1          8.4729    2.2736   -0.0672 O.3       1 <0>        -0.4992
     18 C17         0.0605   -2.9423   -0.0133 C.2       1 <0>         0.1520
     19 N1         -1.0911   -2.3591    0.0990 N.2       1 <0>        -0.3296
     20 O2         -2.2779   -3.1313    0.1071 O.3       1 <0>        -0.4131
     21 H1         -0.9631    1.8791   -0.0065 H         1 <0>         0.1243
     22 H2          1.1284    3.1690   -0.0237 H         1 <0>         0.1240
     23 H3          3.2899    2.0422   -0.0366 H         1 <0>         0.1321
     24 H4         -0.9241   -0.5598   -0.0103 H         1 <0>         0.1652
     25 H5          2.5985   -3.8375   -0.0287 H         1 <0>         0.1368
     26 H6          4.6559   -2.5161   -0.0411 H         1 <0>         0.1329
     27 H7          4.3509    1.4078   -1.6790 H         1 <0>         0.1318
     28 H8          6.4571    2.6755   -1.6869 H         1 <0>         0.1327
     29 H9          7.9054    0.3111    1.5683 H         1 <0>         0.1327
     30 H10         5.7989   -0.9559    1.5936 H         1 <0>         0.1313
     31 H11         8.4647    3.0544    0.5032 H         1 <0>         0.3931
     32 H12         0.1152   -4.0173   -0.1008 H         1 <0>         0.1309
     33 H13        -3.0867   -2.6086    0.1948 H         1 <0>         0.4070
@<TRIPOS>BOND
     1    1    6 ar
     2    1    2 ar
     3    1   21 1
     4    2    3 ar
     5    2   22 1
     6    3    4 ar
     7    3   23 1
     8    4   10 ar
     9    4    5 ar
    10    5    6 ar
    11    5    7 ar
    12    6   24 1
    13    7    8 ar
    14    7   18 1
    15    8    9 ar
    16    8   25 1
    17    9   10 ar
    18    9   26 1
    19   10   11 1
    20   11   16 ar
    21   11   12 ar
    22   12   13 ar
    23   12   27 1
    24   13   14 ar
    25   13   28 1
    26   14   15 ar
    27   14   17 1
    28   15   16 ar
    29   15   29 1
    30   16   30 1
    31   17   31 1
    32   18   19 2
    33   18   32 1
    34   19   20 1
    35   20   33 1
