@<TRIPOS>MOLECULE
CHEMBL205119
   35    37     0     0     0
SMALL
USER_CHARGES

@<TRIPOS>ATOM
      1 C1         -1.8197    0.9846   -0.1849 C.3       1 <0>        -0.1166
      2 C2         -1.4127   -0.4649   -0.1195 C.ar      1 <0>        -0.1078
      3 C3         -1.4009   -1.2351   -1.2751 C.ar      1 <0>         0.1087
      4 C4         -1.0244   -2.5703   -1.2218 C.ar      1 <0>        -0.1440
      5 C5         -0.6698   -3.1396   -0.0158 C.ar      1 <0>        -0.1176
      6 C6         -0.6961   -2.3742    1.1455 C.ar      1 <0>        -0.0473
      7 C7         -1.0470   -1.0239    1.0863 C.ar      1 <0>        -0.0578
      8 C8         -1.0012   -0.1797    2.3316 C.3       1 <0>        -0.0833
      9 C9         -1.4268   -0.9924    3.5505 C.3       1 <0>        -0.0801
     10 C10        -0.6588   -2.2855    3.6227 C.ar      1 <0>        -0.0527
     11 C11        -0.3307   -2.9625    2.4538 C.ar      1 <0>        -0.0427
     12 C12         0.3593   -4.1833    2.5217 C.ar      1 <0>        -0.0273
     13 C13         0.7169   -4.7013    3.7660 C.ar      1 <0>        -0.1391
     14 C14         0.3849   -4.0126    4.9206 C.ar      1 <0>         0.1142
     15 C15        -0.2895   -2.8055    4.8460 C.ar      1 <0>        -0.1428
     16 O1          0.7406   -4.5148    6.1322 O.3       1 <0>        -0.4982
     17 C16         0.7032   -4.9131    1.2854 C.2       1 <0>        -0.1307
     18 C17         0.5474   -6.2295    1.2269 C.2       1 <0>        -0.1716
     19 O2         -1.7595   -0.6798   -2.4623 O.3       1 <0>        -0.4956
     20 H1         -0.9405    1.6007   -0.3735 H         1 <0>         0.0703
     21 H2         -2.5404    1.1236   -0.9907 H         1 <0>         0.0743
     22 H3         -2.2725    1.2779    0.7622 H         1 <0>         0.0720
     23 H4         -1.0095   -3.1635   -2.1241 H         1 <0>         0.1311
     24 H5         -0.3728   -4.1771    0.0264 H         1 <0>         0.1546
     25 H6          0.0150    0.1854    2.4806 H         1 <0>         0.0820
     26 H7         -1.6736    0.6701    2.2142 H         1 <0>         0.0881
     27 H8         -1.2375   -0.4116    4.4532 H         1 <0>         0.0843
     28 H9         -2.4924   -1.2111    3.4820 H         1 <0>         0.0826
     29 H10         1.2512   -5.6378    3.8291 H         1 <0>         0.1331
     30 H11        -0.5422   -2.2765    5.7531 H         1 <0>         0.1321
     31 H12         1.6086   -4.2204    6.4405 H         1 <0>         0.3922
     32 H13         1.0817   -4.3756    0.4285 H         1 <0>         0.1339
     33 H14         0.7990   -6.7634    0.3225 H         1 <0>         0.1095
     34 H15         0.1689   -6.7670    2.0838 H         1 <0>         0.1026
     35 H16        -1.0233   -0.2878   -2.9515 H         1 <0>         0.3899
@<TRIPOS>BOND
     1    1    2 1
     2    1   20 1
     3    1   21 1
     4    1   22 1
     5    2    7 ar
     6    2    3 ar
     7    3    4 ar
     8    3   19 1
     9    4    5 ar
    10    4   23 1
    11    5    6 ar
    12    5   24 1
    13    6   11 1
    14    6    7 ar
    15    7    8 1
    16    8    9 1
    17    8   25 1
    18    8   26 1
    19    9   10 1
    20    9   27 1
    21    9   28 1
    22   10   15 ar
    23   10   11 ar
    24   11   12 ar
    25   12   13 ar
    26   12   17 1
    27   13   14 ar
    28   13   29 1
    29   14   15 ar
    30   14   16 1
    31   15   30 1
    32   16   31 1
    33   17   18 2
    34   17   32 1
    35   18   33 1
    36   18   34 1
    37   19   35 1
