@<TRIPOS>MOLECULE
CHEMBL428926
   69    73     0     0     0
SMALL
USER_CHARGES

@<TRIPOS>ATOM
      1 C1          0.2092    1.2389    0.0011 C.ar      1 <0>        -0.1010
      2 C2          1.4323    1.8790   -0.0422 C.ar      1 <0>        -0.1053
      3 C3          2.6010    1.1365   -0.1287 C.ar      1 <0>         0.1032
      4 C4          2.5410   -0.2489   -0.1717 C.ar      1 <0>        -0.1514
      5 C5          1.3177   -0.8887   -0.1283 C.ar      1 <0>        -0.1622
      6 C6          0.1493   -0.1462   -0.0418 C.ar      1 <0>         0.0811
      7 O1         -1.0549   -0.7762    0.0013 O.3       1 <0>        -0.3269
      8 C7         -1.0420   -2.2044   -0.0470 C.3       1 <0>         0.0259
      9 C8         -2.4778   -2.7296    0.0119 C.3       1 <0>        -0.0008
     10 N1         -3.2129   -2.2802   -1.1779 N.4       1 <0>        -0.3840
     11 C9         -4.6271   -2.6507   -1.0464 C.3       1 <0>        -0.0071
     12 C10        -5.4124   -2.1141   -2.2451 C.3       1 <0>        -0.1467
     13 C11        -4.8428   -2.7165   -3.5327 C.3       1 <0>        -0.1391
     14 C12        -3.3500   -2.3867   -3.6221 C.3       1 <0>        -0.1456
     15 C13        -2.6411   -2.9132   -2.3725 C.3       1 <0>        -0.0130
     16 O2          3.8050    1.7664   -0.1719 O.3       1 <0>        -0.2449
     17 C14         4.9227    1.0001   -0.2565 C.ar      1 <0>         0.0922
     18 C15         5.5691    0.5539    0.9147 C.ar      1 <0>        -0.0650
     19 C16         5.0789    0.8869    2.1881 C.ar      1 <0>        -0.0864
     20 C17         5.7257    0.4402    3.2983 C.ar      1 <0>        -0.1298
     21 C18         6.8756   -0.3480    3.1913 C.ar      1 <0>         0.1207
     22 C19         7.3792   -0.6897    1.9685 C.ar      1 <0>        -0.1341
     23 C20         6.7338   -0.2450    0.8026 C.ar      1 <0>        -0.0282
     24 C21         7.2236   -0.5791   -0.4721 C.ar      1 <0>        -0.0883
     25 C22         6.5786   -0.1348   -1.5853 C.ar      1 <0>        -0.1042
     26 C23         5.4310    0.6475   -1.4864 C.ar      1 <0>        -0.0730
     27 C24         4.7396    1.1171   -2.7404 C.3       1 <0>        -0.0715
     28 C25         4.2707   -0.0951   -3.5397 C.3       1 <0>        -0.1032
     29 C26         3.3386    0.3521   -4.6687 C.3       1 <0>        -0.6047
     30 S1          4.2690    1.4131   -5.8138 S.o2      1 <0>         2.4108
     31 O3          3.3487    2.0465   -6.6919 O.2       1 <0>        -0.9389
     32 O4          5.3405    0.6569   -6.3609 O.2       1 <0>        -0.9296
     33 C27         4.9562    2.6681   -4.6934 C.3       1 <0>        -0.6018
     34 C28         5.7082    1.9631   -3.5616 C.3       1 <0>        -0.1043
     35 O5          7.5005   -0.7792    4.3182 O.3       1 <0>        -0.4963
     36 H1         -0.7004    1.8168    0.0730 H         1 <0>         0.1423
     37 H2          1.4789    2.9575   -0.0092 H         1 <0>         0.1471
     38 H3          3.4507   -0.8270   -0.2394 H         1 <0>         0.1357
     39 H4          1.2709   -1.9671   -0.1621 H         1 <0>         0.1300
     40 H5         -0.5730   -2.5323   -0.9747 H         1 <0>         0.0851
     41 H6         -0.4784   -2.5915    0.8018 H         1 <0>         0.1081
     42 H7         -2.4652   -3.8192    0.0412 H         1 <0>         0.1486
     43 H8         -2.9679   -2.3478    0.9075 H         1 <0>         0.1428
     44 H9         -4.7160   -3.7365   -1.0110 H         1 <0>         0.1291
     45 H10        -5.0302   -2.2240   -0.1280 H         1 <0>         0.1312
     46 H11        -6.4618   -2.3918   -2.1465 H         1 <0>         0.1132
     47 H12        -5.3244   -1.0283   -2.2813 H         1 <0>         0.0882
     48 H13        -4.9769   -3.7982   -3.5194 H         1 <0>         0.0821
     49 H14        -5.3616   -2.2943   -4.3933 H         1 <0>         0.0951
     50 H15        -2.9253   -2.8591   -4.5078 H         1 <0>         0.1124
     51 H16        -3.2192   -1.3065   -3.6869 H         1 <0>         0.0882
     52 H17        -1.5781   -2.6802   -2.4330 H         1 <0>         0.1267
     53 H18        -2.7723   -3.9934   -2.3088 H         1 <0>         0.1301
     54 H19         4.1921    1.4955    2.2854 H         1 <0>         0.1326
     55 H20         5.3459    0.6981    4.2759 H         1 <0>         0.1346
     56 H21         8.2685   -1.2984    1.8983 H         1 <0>         0.1410
     57 H22         8.1109   -1.1874   -0.5679 H         1 <0>         0.1392
     58 H23         6.9615   -0.3955   -2.5609 H         1 <0>         0.1387
     59 H24         3.8754    1.7231   -2.4683 H         1 <0>         0.0965
     60 H25         5.1353   -0.6048   -3.9648 H         1 <0>         0.0918
     61 H26         3.7374   -0.7794   -2.8798 H         1 <0>         0.0861
     62 H27         2.9658   -0.5222   -5.2023 H         1 <0>         0.1369
     63 H28         2.5015    0.9116   -4.2511 H         1 <0>         0.1312
     64 H29         5.6433    3.3113   -5.2431 H         1 <0>         0.1423
     65 H30         4.1469    3.2674   -4.2762 H         1 <0>         0.1351
     66 H31         6.1736    2.7086   -2.9170 H         1 <0>         0.0954
     67 H32         6.4801    1.3206   -3.9853 H         1 <0>         0.0911
     68 H33         7.1819   -1.6326    4.6427 H         1 <0>         0.3954
     69 H34        -3.1363   -1.2775   -1.2605 H         1 <0>         0.4295
@<TRIPOS>BOND
     1    1    6 ar
     2    1    2 ar
     3    1   36 1
     4    2    3 ar
     5    2   37 1
     6    3    4 ar
     7    3   16 1
     8    4    5 ar
     9    4   38 1
    10    5    6 ar
    11    5   39 1
    12    6    7 1
    13    7    8 1
    14    8    9 1
    15    8   40 1
    16    8   41 1
    17    9   10 1
    18    9   42 1
    19    9   43 1
    20   10   15 1
    21   10   11 1
    22   10   69 1
    23   11   12 1
    24   11   44 1
    25   11   45 1
    26   12   13 1
    27   12   46 1
    28   12   47 1
    29   13   14 1
    30   13   48 1
    31   13   49 1
    32   14   15 1
    33   14   50 1
    34   14   51 1
    35   15   52 1
    36   15   53 1
    37   16   17 1
    38   17   26 ar
    39   17   18 ar
    40   18   23 ar
    41   18   19 ar
    42   19   20 ar
    43   19   54 1
    44   20   21 ar
    45   20   55 1
    46   21   22 ar
    47   21   35 1
    48   22   23 ar
    49   22   56 1
    50   23   24 ar
    51   24   25 ar
    52   24   57 1
    53   25   26 ar
    54   25   58 1
    55   26   27 1
    56   27   34 1
    57   27   28 1
    58   27   59 1
    59   28   29 1
    60   28   60 1
    61   28   61 1
    62   29   30 1
    63   29   62 1
    64   29   63 1
    65   30   31 2
    66   30   32 2
    67   30   33 1
    68   33   34 1
    69   33   64 1
    70   33   65 1
    71   34   66 1
    72   34   67 1
    73   35   68 1
