@<TRIPOS>MOLECULE
CHEMBL340111
   59    63     0     0     0
SMALL
USER_CHARGES

@<TRIPOS>ATOM
      1 C1          0.2993    1.2628   -0.6808 C.ar      1 <0>        -0.0966
      2 C2          1.4359    2.0210   -0.4709 C.ar      1 <0>        -0.0969
      3 C3          2.6630    1.4013   -0.3250 C.ar      1 <0>        -0.0459
      4 C4          2.7533    0.0234   -0.3884 C.ar      1 <0>        -0.0721
      5 C5          1.6165   -0.7349   -0.5974 C.ar      1 <0>        -0.0930
      6 C6          0.3897   -0.1151   -0.7448 C.ar      1 <0>        -0.1514
      7 C7         -0.8495   -0.9418   -0.9731 C.3       1 <0>         0.0431
      8 N1         -1.0511   -1.1337   -2.4155 N.4       1 <0>        -0.3815
      9 C8         -1.3178    0.1639   -3.0477 C.3       1 <0>        -0.0132
     10 C9         -1.4483   -0.0191   -4.5613 C.3       1 <0>        -0.1450
     11 C10        -2.6042   -0.9794   -4.8561 C.3       1 <0>        -0.1391
     12 C11        -2.3516   -2.3044   -4.1309 C.3       1 <0>        -0.1463
     13 C12        -2.1876   -2.0367   -2.6333 C.3       1 <0>        -0.0072
     14 C13         3.9022    2.2280   -0.0971 C.3       1 <0>         0.1402
     15 H1          3.7219    3.2525   -0.4226 H         1 <0>         0.1002
     16 C14         4.2588    2.2187    1.3988 C.3       1 <0>        -0.0661
     17 H2          3.4016    2.5454    1.9874 H         1 <0>         0.1399
     18 S1          5.6442    3.3784    1.6224 S.3       1 <0>        -0.0745
     19 C15         6.6920    2.9957    0.2526 C.ar      1 <0>        -0.1487
     20 C16         7.9911    3.4862    0.2397 C.ar      1 <0>        -0.0896
     21 C17         8.8298    3.2070   -0.8271 C.ar      1 <0>         0.1018
     22 C18         8.3637    2.4374   -1.8829 C.ar      1 <0>        -0.1066
     23 C19         7.0742    1.9472   -1.8691 C.ar      1 <0>        -0.1128
     24 C20         6.2239    2.2159   -0.7990 C.ar      1 <0>         0.1182
     25 O1          4.9821    1.6782   -0.8363 O.3       1 <0>        -0.3056
     26 O2         10.1028    3.6850   -0.8392 O.3       1 <0>        -0.4913
     27 C21         4.6732    0.8324    1.8200 C.ar      1 <0>        -0.0934
     28 C22         5.9210    0.3494    1.4717 C.ar      1 <0>        -0.0872
     29 C23         6.3031   -0.9213    1.8563 C.ar      1 <0>        -0.1399
     30 C24         5.4338   -1.7126    2.5930 C.ar      1 <0>         0.1177
     31 C25         4.1825   -1.2254    2.9417 C.ar      1 <0>        -0.1456
     32 C26         3.8072    0.0479    2.5591 C.ar      1 <0>        -0.0837
     33 O3          5.8072   -2.9631    2.9722 O.3       1 <0>        -0.5000
     34 H3         -0.6600    1.7467   -0.7904 H         1 <0>         0.1356
     35 H4          1.3654    3.0976   -0.4214 H         1 <0>         0.1396
     36 H5          3.7120   -0.4607   -0.2751 H         1 <0>         0.1393
     37 H6          1.6872   -1.8114   -0.6477 H         1 <0>         0.1336
     38 H7         -0.7331   -1.9120   -0.4903 H         1 <0>         0.1375
     39 H8         -1.7125   -0.4270   -0.5509 H         1 <0>         0.1359
     40 H9         -2.2451    0.5772   -2.6508 H         1 <0>         0.1277
     41 H10        -0.4959    0.8473   -2.8343 H         1 <0>         0.1307
     42 H11        -1.6481    0.9452   -5.0286 H         1 <0>         0.1111
     43 H12        -0.5214   -0.4321   -4.9593 H         1 <0>         0.0866
     44 H13        -3.5391   -0.5436   -4.5037 H         1 <0>         0.0817
     45 H14        -2.6654   -1.1574   -5.9297 H         1 <0>         0.0939
     46 H15        -3.1970   -2.9737   -4.2906 H         1 <0>         0.1124
     47 H16        -1.4434   -2.7648   -4.5200 H         1 <0>         0.0872
     48 H17        -2.0078   -2.9781   -2.1140 H         1 <0>         0.1302
     49 H18        -3.0963   -1.5766   -2.2452 H         1 <0>         0.1288
     50 H19         8.3486    4.0863    1.0633 H         1 <0>         0.1417
     51 H20         9.0127    2.2210   -2.7186 H         1 <0>         0.1436
     52 H21         6.7205    1.3495   -2.6961 H         1 <0>         0.1405
     53 H22        10.7494    3.0922   -0.4325 H         1 <0>         0.3959
     54 H23         6.5974    0.9658    0.8982 H         1 <0>         0.1320
     55 H24         7.2776   -1.2984    1.5833 H         1 <0>         0.1315
     56 H25         3.5040   -1.8395    3.5151 H         1 <0>         0.1313
     57 H26         2.8349    0.4293    2.8340 H         1 <0>         0.1246
     58 H27         6.2515   -2.9976    3.8303 H         1 <0>         0.3972
     59 H28        -0.2195   -1.5378   -2.8195 H         1 <0>         0.4219
@<TRIPOS>BOND
     1    1    6 ar
     2    1    2 ar
     3    1   34 1
     4    2    3 ar
     5    2   35 1
     6    3    4 ar
     7    3   14 1
     8    4    5 ar
     9    4   36 1
    10    5    6 ar
    11    5   37 1
    12    6    7 1
    13    7    8 1
    14    7   38 1
    15    7   39 1
    16    8   13 1
    17    8    9 1
    18    8   59 1
    19    9   10 1
    20    9   40 1
    21    9   41 1
    22   10   11 1
    23   10   42 1
    24   10   43 1
    25   11   12 1
    26   11   44 1
    27   11   45 1
    28   12   13 1
    29   12   46 1
    30   12   47 1
    31   13   48 1
    32   13   49 1
    33   14   15 1
    34   14   25 1
    35   14   16 1
    36   16   17 1
    37   16   18 1
    38   16   27 1
    39   18   19 1
    40   19   24 ar
    41   19   20 ar
    42   20   21 ar
    43   20   50 1
    44   21   22 ar
    45   21   26 1
    46   22   23 ar
    47   22   51 1
    48   23   24 ar
    49   23   52 1
    50   24   25 1
    51   26   53 1
    52   27   32 ar
    53   27   28 ar
    54   28   29 ar
    55   28   54 1
    56   29   30 ar
    57   29   55 1
    58   30   31 ar
    59   30   33 1
    60   31   32 ar
    61   31   56 1
    62   32   57 1
    63   33   58 1
