@<TRIPOS>MOLECULE
CHEMBL417596
   61    65     0     0     0
SMALL
USER_CHARGES

@<TRIPOS>ATOM
      1 C1          2.5582    3.0025    0.2201 C.ar      1 <0>        -0.1182
      2 C2          1.8756    1.8115    0.3833 C.ar      1 <0>        -0.1217
      3 C3          2.5325    0.6084    0.2047 C.ar      1 <0>        -0.1165
      4 C4          3.8718    0.5962   -0.1375 C.ar      1 <0>        -0.0727
      5 C5          4.5541    1.7872   -0.3016 C.ar      1 <0>        -0.1122
      6 C6          3.8976    2.9903   -0.1216 C.ar      1 <0>        -0.1220
      7 C7          4.5881   -0.7154   -0.3312 C.3       1 <0>        -0.0808
      8 H1          5.5460   -0.5419   -0.8215 H         1 <0>         0.1025
      9 C8          4.8177   -1.3851    1.0297 C.3       1 <0>         0.0681
     10 O1          3.5575   -1.5043    1.6912 O.3       1 <0>        -0.3032
     11 C9          2.5209   -2.0348    0.9915 C.ar      1 <0>         0.1599
     12 C10         1.4133   -2.4949    1.6952 C.ar      1 <0>        -0.1827
     13 C11         0.3347   -3.0378    1.0179 C.ar      1 <0>         0.1499
     14 C12         0.3606   -3.1220   -0.3673 C.ar      1 <0>        -0.1780
     15 C13         1.4613   -2.6669   -1.0643 C.ar      1 <0>        -0.0623
     16 C14         2.5435   -2.1254   -0.3896 C.ar      1 <0>        -0.1741
     17 C15         3.7312   -1.6494   -1.1892 C.3       1 <0>         0.0050
     18 H2          4.3279   -2.5077   -1.4978 H         1 <0>         0.1003
     19 C16         3.2508   -0.9086   -2.4104 C.ar      1 <0>        -0.0889
     20 C17         2.0311   -0.2578   -2.3875 C.ar      1 <0>        -0.0587
     21 C18         1.5883    0.4216   -3.5058 C.ar      1 <0>        -0.1402
     22 C19         2.3687    0.4510   -4.6524 C.ar      1 <0>         0.1126
     23 C20         3.5924   -0.2024   -4.6727 C.ar      1 <0>        -0.2018
     24 C21         4.0331   -0.8761   -3.5500 C.ar      1 <0>        -0.0723
     25 O2          1.9351    1.1183   -5.7540 O.3       1 <0>        -0.3289
     26 C22         2.7908    1.1063   -6.8985 C.3       1 <0>         0.0278
     27 C23         2.1395    1.9032   -8.0306 C.3       1 <0>         0.0038
     28 N1          2.0349    3.3150   -7.6384 N.4       1 <0>        -0.3956
     29 C24         3.3859    3.9282   -7.5671 C.3       1 <0>        -0.0102
     30 C25         3.0958    5.4431   -7.7136 C.3       1 <0>        -0.1447
     31 C26         1.9411    5.4762   -8.7410 C.3       1 <0>        -0.1449
     32 C27         1.2999    4.0779   -8.6705 C.3       1 <0>        -0.0088
     33 O3         -0.7464   -3.4875    1.7076 O.3       1 <0>        -0.4937
     34 H3          2.0439    3.9425    0.3553 H         1 <0>         0.1191
     35 H4          0.8293    1.8210    0.6507 H         1 <0>         0.1191
     36 H5          1.9994   -0.3221    0.3329 H         1 <0>         0.1374
     37 H6          5.6005    1.7777   -0.5686 H         1 <0>         0.1184
     38 H7          4.4307    3.9208   -0.2494 H         1 <0>         0.1194
     39 H8          5.2507   -2.3746    0.8836 H         1 <0>         0.0755
     40 H9          5.4913   -0.7741    1.6306 H         1 <0>         0.1153
     41 H10         1.3945   -2.4288    2.7731 H         1 <0>         0.1409
     42 H11        -0.4796   -3.5436   -0.8990 H         1 <0>         0.1332
     43 H12         1.4792   -2.7333   -2.1421 H         1 <0>         0.1297
     44 H13         1.4239   -0.2810   -1.4947 H         1 <0>         0.1401
     45 H14         0.6352    0.9292   -3.4877 H         1 <0>         0.1302
     46 H15         4.2018   -0.1810   -5.5641 H         1 <0>         0.1260
     47 H16         4.9876   -1.3812   -3.5639 H         1 <0>         0.1296
     48 H17         3.7487    1.5579   -6.6407 H         1 <0>         0.0843
     49 H18         2.9494    0.0778   -7.2227 H         1 <0>         0.1076
     50 H19         2.7489    1.8202   -8.9305 H         1 <0>         0.1482
     51 H20         1.1437    1.5062   -8.2282 H         1 <0>         0.1411
     52 H21         3.8537    3.7173   -6.6054 H         1 <0>         0.1329
     53 H22         4.0122    3.5754   -8.3864 H         1 <0>         0.1347
     54 H23         2.7776    5.8687   -6.7619 H         1 <0>         0.0982
     55 H24         3.9701    5.9677   -8.0989 H         1 <0>         0.1173
     56 H25         1.2134    6.2403   -8.4677 H         1 <0>         0.1057
     57 H26         2.3303    5.6639   -9.7416 H         1 <0>         0.1045
     58 H27         1.3899    3.5790   -9.6355 H         1 <0>         0.1314
     59 H28         0.2499    4.1645   -8.3909 H         1 <0>         0.1329
     60 H29        -1.4278   -2.8167    1.8519 H         1 <0>         0.3967
     61 H30         1.5678    3.3954   -6.7477 H         1 <0>         0.4336
@<TRIPOS>BOND
     1    1    6 ar
     2    1    2 ar
     3    1   34 1
     4    2    3 ar
     5    2   35 1
     6    3    4 ar
     7    3   36 1
     8    4    5 ar
     9    4    7 1
    10    5    6 ar
    11    5   37 1
    12    6   38 1
    13    7    8 1
    14    7   17 1
    15    7    9 1
    16    9   10 1
    17    9   39 1
    18    9   40 1
    19   10   11 1
    20   11   16 ar
    21   11   12 ar
    22   12   13 ar
    23   12   41 1
    24   13   14 ar
    25   13   33 1
    26   14   15 ar
    27   14   42 1
    28   15   16 ar
    29   15   43 1
    30   16   17 1
    31   17   18 1
    32   17   19 1
    33   19   24 ar
    34   19   20 ar
    35   20   21 ar
    36   20   44 1
    37   21   22 ar
    38   21   45 1
    39   22   23 ar
    40   22   25 1
    41   23   24 ar
    42   23   46 1
    43   24   47 1
    44   25   26 1
    45   26   27 1
    46   26   48 1
    47   26   49 1
    48   27   28 1
    49   27   50 1
    50   27   51 1
    51   28   32 1
    52   28   29 1
    53   28   61 1
    54   29   30 1
    55   29   52 1
    56   29   53 1
    57   30   31 1
    58   30   54 1
    59   30   55 1
    60   31   32 1
    61   31   56 1
    62   31   57 1
    63   32   58 1
    64   32   59 1
    65   33   60 1
