@<TRIPOS>MOLECULE
CHEMBL400334
   71    77     0     0     0
SMALL
USER_CHARGES

@<TRIPOS>ATOM
      1 C1         -0.3265    1.6716   -0.2984 C.3       1 <0>        -0.1371
      2 C2         -0.2557    0.1446   -0.2338 C.3       1 <0>        -0.0438
      3 C3         -1.6506   -0.4225   -0.0729 C.3       1 <0>        -0.1017
      4 C4         -2.2771    0.2292    1.1747 C.3       1 <0>        -0.1117
      5 C5         -1.4113   -0.0177    2.4016 C.3       1 <0>        -0.0427
      6 H1         -1.3751   -1.0929    2.5774 H         1 <0>         0.0769
      7 C6         -1.9832    0.6330    3.6279 C.ar      1 <0>        -0.0754
      8 C7         -3.3642    0.7077    3.7496 C.ar      1 <0>        -0.1026
      9 C8         -3.9410    1.2864    4.8599 C.ar      1 <0>        -0.1470
     10 C9         -3.1333    1.7974    5.8656 C.ar      1 <0>         0.1014
     11 C10        -1.7568    1.7264    5.7422 C.ar      1 <0>        -0.1480
     12 C11        -1.1764    1.1494    4.6205 C.ar      1 <0>        -0.0583
     13 C12         0.3273    1.1338    4.5427 C.3       1 <0>        -0.0815
     14 C13         0.8187    0.1758    3.4584 C.3       1 <0>        -0.1135
     15 C14         0.0256    0.4750    2.1859 C.3       1 <0>        -0.0734
     16 H2          0.0215    1.5464    1.9853 H         1 <0>         0.0880
     17 C15         0.5840   -0.2861    1.0012 C.3       1 <0>        -0.0823
     18 H3          0.4940   -1.3590    1.1712 H         1 <0>         0.0782
     19 C16         2.0012    0.0887    0.5542 C.3       1 <0>        -0.1114
     20 C17         2.0299   -0.3653   -0.9309 C.3       1 <0>        -0.1429
     21 C18         0.5572   -0.3799   -1.4117 C.3       1 <0>         0.2592
     22 C19         0.1434   -1.7523   -1.7464 C.1       1 <0>        -0.1643
     23 C20        -0.1867   -2.8469   -2.0133 C.1       1 <0>        -0.0937
     24 C21        -0.5893   -4.1820   -2.3389 C.2       1 <0>        -0.1654
     25 C22        -1.6557   -4.8602   -1.5820 C.2       1 <0>         0.4343
     26 O1         -2.3872   -4.2569   -0.8159 O.2       1 <0>        -0.4425
     27 C23        -1.7867   -6.3148   -1.8064 C.ar      1 <0>        -0.2130
     28 C24        -2.5686   -7.1077   -0.9683 C.ar      1 <0>        -0.0312
     29 C25        -2.6633   -8.4615   -1.2071 C.ar      1 <0>        -0.1425
     30 C26        -1.9840   -9.0305   -2.2746 C.ar      1 <0>        -0.0564
     31 C27        -1.2096   -8.2559   -3.1110 C.ar      1 <0>        -0.1352
     32 C28        -1.1011   -6.8865   -2.8901 C.ar      1 <0>         0.1393
     33 O2         -0.3555   -6.1214   -3.7114 O.3       1 <0>        -0.2083
     34 C29         0.0087   -4.8760   -3.3810 C.2       1 <0>         0.2178
     35 C30         1.0857   -4.2227   -4.1461 C.ar      1 <0>        -0.0742
     36 C31         2.1453   -3.6022   -3.4779 C.ar      1 <0>        -0.0706
     37 C32         3.1495   -2.9934   -4.2006 C.ar      1 <0>        -0.1220
     38 C33         3.1103   -2.9956   -5.5840 C.ar      1 <0>        -0.0917
     39 C34         2.0645   -3.6078   -6.2526 C.ar      1 <0>        -0.1219
     40 C35         1.0557   -4.2253   -5.5437 C.ar      1 <0>        -0.0765
     41 O3          0.3974    0.4767   -2.5443 O.3       1 <0>        -0.5368
     42 O4         -3.6914    2.3654    6.9668 O.3       1 <0>        -0.5004
     43 H4          0.6832    2.0814   -0.3237 H         1 <0>         0.0574
     44 H5         -0.8635    1.9726   -1.1980 H         1 <0>         0.0638
     45 H6         -0.8498    2.0485    0.5803 H         1 <0>         0.0646
     46 H7         -2.2492   -0.1875   -0.9530 H         1 <0>         0.0662
     47 H8         -1.5974   -1.5029    0.0615 H         1 <0>         0.0707
     48 H9         -2.3699    1.3028    1.0108 H         1 <0>         0.0700
     49 H10        -3.2672   -0.1947    1.3425 H         1 <0>         0.0659
     50 H11        -3.9925    0.3091    2.9669 H         1 <0>         0.1279
     51 H12        -5.0161    1.3421    4.9462 H         1 <0>         0.1271
     52 H13        -1.1282    2.1238    6.5254 H         1 <0>         0.1256
     53 H14         0.6833    2.1393    4.3184 H         1 <0>         0.0776
     54 H15         0.7311    0.8202    5.5054 H         1 <0>         0.0744
     55 H16         1.8815    0.3380    3.2786 H         1 <0>         0.0722
     56 H17         0.6516   -0.8539    3.7743 H         1 <0>         0.0660
     57 H18         2.1580    1.1646    0.6316 H         1 <0>         0.0762
     58 H19         2.7455   -0.4533    1.1375 H         1 <0>         0.0706
     59 H20         2.6109    0.3390   -1.5263 H         1 <0>         0.0822
     60 H21         2.4587   -1.3644   -1.0084 H         1 <0>         0.0711
     61 H22        -3.0970   -6.6640   -0.1375 H         1 <0>         0.1439
     62 H23        -3.2676   -9.0813   -0.5614 H         1 <0>         0.1397
     63 H24        -2.0632  -10.0928   -2.4524 H         1 <0>         0.1435
     64 H25        -0.6861   -8.7123   -3.9380 H         1 <0>         0.1459
     65 H26         2.1771   -3.5994   -2.3983 H         1 <0>         0.1285
     66 H27         3.9686   -2.5133   -3.6858 H         1 <0>         0.1325
     67 H28         3.8995   -2.5168   -6.1447 H         1 <0>         0.1306
     68 H29         2.0406   -3.6054   -7.3324 H         1 <0>         0.1328
     69 H30         0.2426   -4.7065   -6.0669 H         1 <0>         0.1317
     70 H31         0.8922    0.1928   -3.3251 H         1 <0>         0.3767
     71 H32        -3.8576    1.7438    7.6886 H         1 <0>         0.3895
@<TRIPOS>BOND
     1    1    2 1
     2    1   43 1
     3    1   44 1
     4    1   45 1
     5    2   17 1
     6    2   21 1
     7    2    3 1
     8    3    4 1
     9    3   46 1
    10    3   47 1
    11    4    5 1
    12    4   48 1
    13    4   49 1
    14    5    6 1
    15    5   15 1
    16    5    7 1
    17    7   12 ar
    18    7    8 ar
    19    8    9 ar
    20    8   50 1
    21    9   10 ar
    22    9   51 1
    23   10   11 ar
    24   10   42 1
    25   11   12 ar
    26   11   52 1
    27   12   13 1
    28   13   14 1
    29   13   53 1
    30   13   54 1
    31   14   15 1
    32   14   55 1
    33   14   56 1
    34   15   16 1
    35   15   17 1
    36   17   18 1
    37   17   19 1
    38   19   20 1
    39   19   57 1
    40   19   58 1
    41   20   21 1
    42   20   59 1
    43   20   60 1
    44   21   22 1
    45   21   41 1
    46   22   23 3
    47   23   24 1
    48   24   34 2
    49   24   25 1
    50   25   26 2
    51   25   27 1
    52   27   32 ar
    53   27   28 ar
    54   28   29 ar
    55   28   61 1
    56   29   30 ar
    57   29   62 1
    58   30   31 ar
    59   30   63 1
    60   31   32 ar
    61   31   64 1
    62   32   33 1
    63   33   34 1
    64   34   35 1
    65   35   40 ar
    66   35   36 ar
    67   36   37 ar
    68   36   65 1
    69   37   38 ar
    70   37   66 1
    71   38   39 ar
    72   38   67 1
    73   39   40 ar
    74   39   68 1
    75   40   69 1
    76   41   70 1
    77   42   71 1
