@<TRIPOS>MOLECULE
CHEMBL94225
   69    73     0     0     0
SMALL
USER_CHARGES

@<TRIPOS>ATOM
      1 C1          1.7026    0.7627   -1.3492 C.ar      1 <0>        -0.0957
      2 C2          2.8560    1.5008   -1.1564 C.ar      1 <0>        -0.1135
      3 C3          3.9292    0.9473   -0.4833 C.ar      1 <0>        -0.0633
      4 C4          3.8520   -0.3454   -0.0020 C.ar      1 <0>        -0.1258
      5 C5          2.6962   -1.0879   -0.1941 C.ar      1 <0>         0.1043
      6 C6          1.6202   -0.5300   -0.8695 C.ar      1 <0>        -0.1365
      7 O1          2.6177   -2.3597    0.2785 O.3       1 <0>        -0.4950
      8 C7          5.1846    1.7546   -0.2750 C.3       1 <0>        -0.0668
      9 H1          6.0061    1.0973    0.0101 H         1 <0>         0.1386
     10 C8          4.9539    2.8108    0.8187 C.3       1 <0>         0.1500
     11 H2          5.8197    3.4703    0.8770 H         1 <0>         0.0968
     12 O2          3.7997    3.5703    0.4934 O.3       1 <0>        -0.3050
     13 C9          3.7066    4.2764   -0.6578 C.ar      1 <0>         0.1210
     14 C10         2.8214    5.3515   -0.6850 C.ar      1 <0>        -0.1138
     15 C11         2.6646    6.1047   -1.8301 C.ar      1 <0>        -0.1064
     16 C12         3.3894    5.7981   -2.9725 C.ar      1 <0>         0.0990
     17 C13         4.2775    4.7349   -2.9555 C.ar      1 <0>        -0.0898
     18 C14         4.4408    3.9809   -1.8009 C.ar      1 <0>        -0.1473
     19 S1          5.6074    2.6509   -1.8021 S.3       1 <0>        -0.0805
     20 O3          3.2287    6.5368   -4.1028 O.3       1 <0>        -0.4915
     21 C15         4.7514    2.1262    2.1458 C.ar      1 <0>        -0.1035
     22 C16         3.5217    1.5768    2.4585 C.ar      1 <0>        -0.0363
     23 C17         3.3334    0.9491    3.6746 C.ar      1 <0>        -0.1438
     24 C18         4.3795    0.8700    4.5823 C.ar      1 <0>         0.1245
     25 C19         5.6125    1.4216    4.2661 C.ar      1 <0>        -0.2028
     26 C20         5.7972    2.0437    3.0465 C.ar      1 <0>        -0.0581
     27 O4          4.1966    0.2534    5.7795 O.3       1 <0>        -0.3274
     28 C21         5.3177    0.2094    6.6645 C.3       1 <0>         0.0258
     29 C22         4.9234   -0.5182    7.9514 C.3       1 <0>        -0.0045
     30 N1          4.6143   -1.9214    7.6456 N.4       1 <0>        -0.5119
     31 C23         4.3585   -2.6501    8.8952 C.3       1 <0>         0.0373
     32 C24         4.2596   -4.1573    8.5832 C.3       1 <0>        -0.1359
     33 C25         4.5107   -4.9255    9.8525 C.3       1 <0>        -0.1203
     34 C26         3.2075   -5.2848   10.5916 C.3       1 <0>        -0.1262
     35 C27         2.1887   -4.1290   10.6023 C.3       1 <0>        -0.1295
     36 C28         2.8343   -2.7946   10.8609 C.3       1 <0>        -0.1069
     37 C29         3.1439   -2.1288    9.5045 C.3       1 <0>        -0.1599
     38 H3          0.8638    1.1989   -1.8714 H         1 <0>         0.1309
     39 H4          2.9185    2.5113   -1.5325 H         1 <0>         0.1312
     40 H5          4.6909   -0.7776    0.5231 H         1 <0>         0.1251
     41 H6          0.7191   -1.1059   -1.0201 H         1 <0>         0.1315
     42 H7          2.2728   -2.4239    1.1796 H         1 <0>         0.3861
     43 H8          2.2518    5.5976    0.1990 H         1 <0>         0.1412
     44 H9          1.9748    6.9357   -1.8373 H         1 <0>         0.1429
     45 H10         4.8438    4.4918   -3.8424 H         1 <0>         0.1406
     46 H11         3.8272    7.2937   -4.1664 H         1 <0>         0.3947
     47 H12         2.7076    1.6387    1.7515 H         1 <0>         0.1388
     48 H13         2.3725    0.5208    3.9186 H         1 <0>         0.1347
     49 H14         6.4284    1.3613    4.9711 H         1 <0>         0.1321
     50 H15         6.7581    2.4694    2.7980 H         1 <0>         0.1352
     51 H16         6.1393   -0.3219    6.1840 H         1 <0>         0.0881
     52 H17         5.6323    1.2253    6.9033 H         1 <0>         0.1110
     53 H18         5.7494   -0.4745    8.6612 H         1 <0>         0.1520
     54 H19         4.0457   -0.0391    8.3853 H         1 <0>         0.1446
     55 H20         3.7958   -1.9650    7.0572 H         1 <0>         0.4323
     56 H21         5.1935   -2.4860    9.5763 H         1 <0>         0.1364
     57 H22         3.2634   -4.3886    8.2062 H         1 <0>         0.0958
     58 H23         5.0080   -4.4268    7.8379 H         1 <0>         0.0868
     59 H24         5.0429   -5.8450    9.6088 H         1 <0>         0.0809
     60 H25         5.1354   -4.3229   10.5117 H         1 <0>         0.0696
     61 H26         2.7541   -6.1485   10.1052 H         1 <0>         0.0688
     62 H27         3.4488   -5.5502   11.6208 H         1 <0>         0.0710
     63 H28         1.6836   -4.0952    9.6370 H         1 <0>         0.0634
     64 H29         1.4482   -4.3189   11.3793 H         1 <0>         0.0732
     65 H30         2.1537   -2.1631   11.4320 H         1 <0>         0.0843
     66 H31         3.7601   -2.9377   11.4183 H         1 <0>         0.0772
     67 H32         3.2576   -1.0553    9.6560 H         1 <0>         0.0853
     68 H33         2.3072   -2.3012    8.8275 H         1 <0>         0.0879
     69 H34         5.3963   -2.3411    7.1656 H         1 <0>         0.4274
@<TRIPOS>BOND
     1    1    6 ar
     2    1    2 ar
     3    1   38 1
     4    2    3 ar
     5    2   39 1
     6    3    4 ar
     7    3    8 1
     8    4    5 ar
     9    4   40 1
    10    5    6 ar
    11    5    7 1
    12    6   41 1
    13    7   42 1
    14    8    9 1
    15    8   19 1
    16    8   10 1
    17   10   11 1
    18   10   12 1
    19   10   21 1
    20   12   13 1
    21   13   18 ar
    22   13   14 ar
    23   14   15 ar
    24   14   43 1
    25   15   16 ar
    26   15   44 1
    27   16   17 ar
    28   16   20 1
    29   17   18 ar
    30   17   45 1
    31   18   19 1
    32   20   46 1
    33   21   26 ar
    34   21   22 ar
    35   22   23 ar
    36   22   47 1
    37   23   24 ar
    38   23   48 1
    39   24   25 ar
    40   24   27 1
    41   25   26 ar
    42   25   49 1
    43   26   50 1
    44   27   28 1
    45   28   29 1
    46   28   51 1
    47   28   52 1
    48   29   30 1
    49   29   53 1
    50   29   54 1
    51   30   31 1
    52   30   55 1
    53   30   69 1
    54   31   37 1
    55   31   32 1
    56   31   56 1
    57   32   33 1
    58   32   57 1
    59   32   58 1
    60   33   34 1
    61   33   59 1
    62   33   60 1
    63   34   35 1
    64   34   61 1
    65   34   62 1
    66   35   36 1
    67   35   63 1
    68   35   64 1
    69   36   37 1
    70   36   65 1
    71   36   66 1
    72   37   67 1
    73   37   68 1
