@<TRIPOS>MOLECULE
CHEMBL80976
   41    45     0     0     0
SMALL
USER_CHARGES

@<TRIPOS>ATOM
      1 C1         -0.0169    1.3967    0.0097 C.ar      1 <0>        -0.0877
      2 C2          1.1679    2.0986    0.0022 C.ar      1 <0>        -0.1424
      3 C3          2.3806    1.4203   -0.0130 C.ar      1 <0>         0.1044
      4 C4          2.4060    0.0310   -0.0207 C.ar      1 <0>        -0.1429
      5 C5          1.2279   -0.6822   -0.0138 C.ar      1 <0>        -0.0877
      6 C6          0.0021   -0.0041    0.0020 C.ar      1 <0>        -0.0254
      7 C7         -1.2567   -0.7579    0.0105 C.2       1 <0>        -0.1059
      8 C8         -2.2126   -0.7782   -0.9894 C.2       1 <0>         0.1295
      9 C9         -2.6775   -0.5801   -2.3125 C.2       1 <0>        -0.0913
     10 C10        -3.8428   -1.2953   -2.5055 C.2       1 <0>        -0.1057
     11 C11        -4.1955   -1.9454   -1.3115 C.2       1 <0>         0.1576
     12 C12        -5.0107   -2.8677   -0.6995 C.2       1 <0>        -0.1831
     13 C13        -4.7797   -3.3402    0.6262 C.2       1 <0>        -0.0885
     14 C14        -3.9210   -2.7578    1.4936 C.2       1 <0>        -0.1526
     15 C15        -3.5526   -3.3443    2.8250 C.3       1 <0>        -0.0597
     16 C16        -2.1392   -3.9230    2.7935 C.3       1 <0>        -0.1170
     17 C17        -1.0331   -2.8658    3.0698 C.3       1 <0>        -0.1196
     18 C18        -1.4449   -1.4653    2.5704 C.3       1 <0>        -0.1021
     19 C19        -1.7504   -1.6575    1.0992 C.3       1 <0>        -0.0593
     20 C20        -3.2925   -1.5122    0.9691 C.3       1 <0>         0.1653
     21 N1         -3.2885   -1.4104   -0.4682 N.pl3     1 <0>        -0.5689
     22 O1          3.5462    2.1183   -0.0209 O.3       1 <0>        -0.5000
     23 H1         -0.9587    1.9251    0.0261 H         1 <0>         0.1267
     24 H2          1.1546    3.1785    0.0077 H         1 <0>         0.1302
     25 H3          3.3516   -0.4907   -0.0326 H         1 <0>         0.1297
     26 H4          1.2489   -1.7620   -0.0205 H         1 <0>         0.1259
     27 H5         -2.1947    0.0364   -3.0563 H         1 <0>         0.1531
     28 H6         -4.3971   -1.3466   -3.4310 H         1 <0>         0.1554
     29 H7         -5.8606   -3.2505   -1.2450 H         1 <0>         0.1244
     30 H8         -5.3222   -4.2135    0.9567 H         1 <0>         0.1162
     31 H9         -3.6041   -2.5657    3.5861 H         1 <0>         0.0761
     32 H10        -4.2585   -4.1362    3.0754 H         1 <0>         0.0746
     33 H11        -2.0666   -4.7092    3.5450 H         1 <0>         0.0677
     34 H12        -1.9638   -4.3639    1.8123 H         1 <0>         0.0587
     35 H13        -0.8455   -2.8197    4.1425 H         1 <0>         0.0632
     36 H14        -0.1171   -3.1689    2.5627 H         1 <0>         0.0636
     37 H15        -2.3306   -1.1183    3.1026 H         1 <0>         0.0766
     38 H16        -0.6234   -0.7605    2.6984 H         1 <0>         0.0724
     39 H17        -1.5090   -2.6844    0.8250 H         1 <0>         0.0884
     40 H18        -3.6790   -0.6200    1.4617 H         1 <0>         0.0884
     41 H19         3.8922    2.3159    0.8602 H         1 <0>         0.3913
@<TRIPOS>BOND
     1    1    6 ar
     2    1    2 ar
     3    1   23 1
     4    2    3 ar
     5    2   24 1
     6    3    4 ar
     7    3   22 1
     8    4    5 ar
     9    4   25 1
    10    5    6 ar
    11    5   26 1
    12    6    7 1
    13    7   19 1
    14    7    8 2
    15    8   21 1
    16    8    9 1
    17    9   10 2
    18    9   27 1
    19   10   11 1
    20   10   28 1
    21   11   21 1
    22   11   12 2
    23   12   13 1
    24   12   29 1
    25   13   14 2
    26   13   30 1
    27   14   20 1
    28   14   15 1
    29   15   16 1
    30   15   31 1
    31   15   32 1
    32   16   17 1
    33   16   33 1
    34   16   34 1
    35   17   18 1
    36   17   35 1
    37   17   36 1
    38   18   19 1
    39   18   37 1
    40   18   38 1
    41   19   20 1
    42   19   39 1
    43   20   21 1
    44   20   40 1
    45   22   41 1
