@<TRIPOS>MOLECULE
CHEMBL457035
   57    60     0     0     0
SMALL
USER_CHARGES

@<TRIPOS>ATOM
      1 C1         -0.0187    1.5258    0.0104 C.3       1 <0>        -0.1621
      2 C2          0.0021   -0.0041    0.0020 C.3       1 <0>        -0.1204
      3 C3          0.7182   -0.4975   -1.2568 C.3       1 <0>        -0.0066
      4 C4          2.1560    0.0171   -1.2406 C.3       1 <0>        -0.1058
      5 C5          2.8430   -0.4745    0.0377 C.3       1 <0>        -0.1419
      6 C6          2.8304   -2.0025    0.0839 C.3       1 <0>         0.2540
      7 C7          1.3876   -2.5161    0.0380 C.3       1 <0>        -0.0972
      8 C8          0.7308   -2.0253   -1.2508 C.3       1 <0>        -0.0741
      9 H1          1.2981   -2.3872   -2.1083 H         1 <0>         0.0768
     10 C9         -0.7137   -2.5161   -1.3521 C.3       1 <0>        -0.1166
     11 C10        -1.2263   -2.2031   -2.7574 C.3       1 <0>        -0.0812
     12 C11        -0.9321   -0.7765   -3.1403 C.ar      1 <0>        -0.0318
     13 C12        -0.0156    0.0122   -2.4645 C.ar      1 <0>        -0.0955
     14 C13         0.2221    1.3165   -2.8750 C.ar      1 <0>        -0.0728
     15 C14        -0.4299    1.8374   -3.9728 C.ar      1 <0>        -0.2127
     16 C15        -1.3327    1.0500   -4.6723 C.ar      1 <0>         0.1275
     17 C16        -1.6058   -0.2520   -4.2348 C.ar      1 <0>        -0.1533
     18 O1         -1.9840    1.5545   -5.7531 O.3       1 <0>        -0.3086
     19 C17        -1.6910    2.9055   -6.1148 C.3       1 <0>         0.1016
     20 C18        -2.5006    3.2880   -7.3269 C.ar      1 <0>        -0.0521
     21 C19        -2.0047    3.0827   -8.6053 C.ar      1 <0>        -0.1497
     22 C20        -2.7758    3.4460   -9.6932 C.ar      1 <0>         0.0988
     23 N1         -3.9688    3.9821   -9.5254 N.ar      1 <0>        -0.4777
     24 C21        -4.4722    4.1918   -8.3248 C.ar      1 <0>         0.0989
     25 C22        -3.7615    3.8482   -7.1903 C.ar      1 <0>        -0.1496
     26 C23         3.5745   -2.5324   -1.0703 C.1       1 <0>        -0.2144
     27 C24         4.1680   -2.9549   -1.9909 C.1       1 <0>        -0.1646
     28 C25         4.9122   -3.4847   -3.1452 C.3       1 <0>        -0.0459
     29 O2          3.4534   -2.4457    1.2912 O.3       1 <0>        -0.5497
     30 H2          1.0039    1.9031    0.0027 H         1 <0>         0.0555
     31 H3         -0.5459    1.8868   -0.8726 H         1 <0>         0.0618
     32 H4         -0.5289    1.8773    0.9072 H         1 <0>         0.0532
     33 H5          0.5293   -0.3651    0.8851 H         1 <0>         0.0744
     34 H6         -1.0205   -0.3814    0.0098 H         1 <0>         0.0678
     35 H7          2.6899   -0.3632   -2.1115 H         1 <0>         0.0669
     36 H8          2.1541    1.1069   -1.2582 H         1 <0>         0.0739
     37 H9          3.8738   -0.1206    0.0534 H         1 <0>         0.0679
     38 H10         2.3143   -0.0820    0.9064 H         1 <0>         0.0860
     39 H11         1.3871   -3.6060    0.0562 H         1 <0>         0.0747
     40 H12         0.8364   -2.1342    0.8973 H         1 <0>         0.0854
     41 H13        -0.7498   -3.5915   -1.1784 H         1 <0>         0.0720
     42 H14        -1.3292   -2.0028   -0.6133 H         1 <0>         0.0741
     43 H15        -0.7435   -2.8711   -3.4707 H         1 <0>         0.0787
     44 H16        -2.3035   -2.3665   -2.7893 H         1 <0>         0.0789
     45 H17         0.9247    1.9293   -2.3297 H         1 <0>         0.1270
     46 H18        -0.2390    2.8531   -4.2862 H         1 <0>         0.1263
     47 H19        -2.3154   -0.8651   -4.7706 H         1 <0>         0.1289
     48 H20        -1.9437    3.5665   -5.2857 H         1 <0>         0.0762
     49 H21        -0.6292    2.9985   -6.3429 H         1 <0>         0.0760
     50 H22        -1.0280    2.6447   -8.7491 H         1 <0>         0.1376
     51 H23        -2.3967    3.2894  -10.6923 H         1 <0>         0.1603
     52 H24        -5.4529    4.6335   -8.2269 H         1 <0>         0.1603
     53 H25        -4.1812    4.0179   -6.2098 H         1 <0>         0.1378
     54 H26         4.9041   -4.5743   -3.1136 H         1 <0>         0.0819
     55 H27         4.4421   -3.1445   -4.0678 H         1 <0>         0.0817
     56 H28         5.9415   -3.1278   -3.1088 H         1 <0>         0.0814
     57 H29         4.3737   -2.1642    1.3852 H         1 <0>         0.3805
@<TRIPOS>BOND
     1    1    2 1
     2    1   30 1
     3    1   31 1
     4    1   32 1
     5    2    3 1
     6    2   33 1
     7    2   34 1
     8    3    8 1
     9    3   13 1
    10    3    4 1
    11    4    5 1
    12    4   35 1
    13    4   36 1
    14    5    6 1
    15    5   37 1
    16    5   38 1
    17    6    7 1
    18    6   26 1
    19    6   29 1
    20    7    8 1
    21    7   39 1
    22    7   40 1
    23    8    9 1
    24    8   10 1
    25   10   11 1
    26   10   41 1
    27   10   42 1
    28   11   12 1
    29   11   43 1
    30   11   44 1
    31   12   17 ar
    32   12   13 ar
    33   13   14 ar
    34   14   15 ar
    35   14   45 1
    36   15   16 ar
    37   15   46 1
    38   16   17 ar
    39   16   18 1
    40   17   47 1
    41   18   19 1
    42   19   20 1
    43   19   48 1
    44   19   49 1
    45   20   25 ar
    46   20   21 ar
    47   21   22 ar
    48   21   50 1
    49   22   23 ar
    50   22   51 1
    51   23   24 ar
    52   24   25 ar
    53   24   52 1
    54   25   53 1
    55   26   27 3
    56   27   28 1
    57   28   54 1
    58   28   55 1
    59   28   56 1
    60   29   57 1
