@<TRIPOS>MOLECULE
CHEMBL135236
   40    43     0     0     0
SMALL
USER_CHARGES

@<TRIPOS>ATOM
      1 C1         -0.0187    1.5258    0.0104 C.3       1 <0>        -0.1488
      2 C2          0.0021   -0.0041    0.0020 C.3       1 <0>        -0.0568
      3 C3         -1.4124   -0.5389    0.1053 C.3       1 <0>        -0.0915
      4 C4         -2.0909    0.2137    1.2559 C.3       1 <0>        -0.0840
      5 C5         -1.1820    0.4428    2.4339 C.ar      1 <0>        -0.0575
      6 C6         -1.7535    1.0152    3.5933 C.ar      1 <0>        -0.0591
      7 C7         -3.1262    1.3213    3.6331 C.ar      1 <0>        -0.0920
      8 C8         -3.6607    1.8735    4.7548 C.ar      1 <0>        -0.1398
      9 C9         -2.8654    2.1424    5.8732 C.ar      1 <0>         0.1072
     10 C10        -1.5296    1.8570    5.8679 C.ar      1 <0>        -0.1347
     11 C11        -0.9479    1.2854    4.7237 C.ar      1 <0>        -0.0370
     12 C12         0.4230    0.9771    4.6823 C.ar      1 <0>        -0.1112
     13 C13         0.9420    0.4134    3.5606 C.ar      1 <0>        -0.1023
     14 C14         0.1484    0.1373    2.4459 C.ar      1 <0>        -0.0612
     15 C15         0.7511   -0.5290    1.2564 C.3       1 <0>        -0.0531
     16 H1          0.6359   -1.6103    1.3322 H         1 <0>         0.0920
     17 C16         2.2003   -0.1723    0.9212 C.3       1 <0>        -0.1119
     18 C17         2.3080   -0.5536   -0.5821 C.3       1 <0>        -0.1563
     19 C18         0.8658   -0.5039   -1.1491 C.3       1 <0>         0.1125
     20 H2          0.8134    0.1883   -1.9895 H         1 <0>         0.0605
     21 O1          0.4466   -1.8089   -1.5533 O.3       1 <0>        -0.5605
     22 O2         -3.4286    2.6951    6.9795 O.3       1 <0>        -0.5006
     23 H3          1.0039    1.9031    0.0027 H         1 <0>         0.0576
     24 H4         -0.5459    1.8868   -0.8726 H         1 <0>         0.0565
     25 H5         -0.5289    1.8773    0.9072 H         1 <0>         0.0719
     26 H6         -1.9483   -0.3562   -0.8261 H         1 <0>         0.0702
     27 H7         -1.3916   -1.6072    0.3205 H         1 <0>         0.0732
     28 H8         -2.4359    1.1796    0.8870 H         1 <0>         0.0782
     29 H9         -2.9559   -0.3606    1.5877 H         1 <0>         0.0760
     30 H10        -3.7523    1.1190    2.7767 H         1 <0>         0.1331
     31 H11        -4.7146    2.1082    4.7823 H         1 <0>         0.1292
     32 H12        -0.9249    2.0689    6.7373 H         1 <0>         0.1330
     33 H13         1.0561    1.1863    5.5319 H         1 <0>         0.1285
     34 H14         1.9945    0.1734    3.5304 H         1 <0>         0.1230
     35 H15         2.3785    0.8936    1.0632 H         1 <0>         0.0728
     36 H16         2.8923   -0.7640    1.5205 H         1 <0>         0.0694
     37 H17         2.9409    0.1630   -1.1056 H         1 <0>         0.0701
     38 H18         2.7161   -1.5591   -0.6849 H         1 <0>         0.0750
     39 H19         0.9611   -2.1786   -2.2838 H         1 <0>         0.3771
     40 H20        -3.7631    2.0481    7.6156 H         1 <0>         0.3913
@<TRIPOS>BOND
     1    1    2 1
     2    1   23 1
     3    1   24 1
     4    1   25 1
     5    2   15 1
     6    2   19 1
     7    2    3 1
     8    3    4 1
     9    3   26 1
    10    3   27 1
    11    4    5 1
    12    4   28 1
    13    4   29 1
    14    5   14 ar
    15    5    6 ar
    16    6   11 ar
    17    6    7 ar
    18    7    8 ar
    19    7   30 1
    20    8    9 ar
    21    8   31 1
    22    9   10 ar
    23    9   22 1
    24   10   11 ar
    25   10   32 1
    26   11   12 ar
    27   12   13 ar
    28   12   33 1
    29   13   14 ar
    30   13   34 1
    31   14   15 1
    32   15   16 1
    33   15   17 1
    34   17   18 1
    35   17   35 1
    36   17   36 1
    37   18   19 1
    38   18   37 1
    39   18   38 1
    40   19   20 1
    41   19   21 1
    42   21   39 1
    43   22   40 1
