@<TRIPOS>MOLECULE
CHEMBL100617
   69    73     0     0     0
SMALL
USER_CHARGES

@<TRIPOS>ATOM
      1 C1          1.6444    0.8033    0.0973 C.3       1 <0>        -0.1490
      2 C2          1.0586   -0.5968    0.2909 C.3       1 <0>         0.2865
      3 C3          1.6202   -1.5251   -0.7568 C.ar      1 <0>        -0.0910
      4 C4          1.6031   -1.0955   -2.0774 C.ar      1 <0>        -0.0999
      5 C5          2.0922   -1.9012   -3.0835 C.ar      1 <0>        -0.1468
      6 C6          2.6047   -3.1528   -2.7730 C.ar      1 <0>         0.1131
      7 C7          2.6249   -3.5782   -1.4562 C.ar      1 <0>        -0.1473
      8 C8          2.1372   -2.7624   -0.4433 C.ar      1 <0>        -0.0410
      9 C9          2.2169   -3.2809    0.9685 C.3       1 <0>        -0.1031
     10 C10         1.2442   -2.5326    1.8785 C.3       1 <0>         0.1371
     11 N1          1.4071   -1.0911    1.6271 N.pl3     1 <0>        -0.6659
     12 C11         1.8752   -0.2290    2.6212 C.ar      1 <0>         0.1933
     13 C12         0.9751    0.4640    3.4218 C.ar      1 <0>        -0.1387
     14 C13         1.4383    1.3165    4.4048 C.ar      1 <0>        -0.0955
     15 C14         2.7972    1.4825    4.5953 C.ar      1 <0>        -0.1476
     16 C15         3.7007    0.7928    3.7993 C.ar      1 <0>         0.1158
     17 C16         3.2401   -0.0675    2.8148 C.ar      1 <0>        -0.1503
     18 O1          5.0365    0.9571    3.9880 O.3       1 <0>        -0.4992
     19 O2          3.0842   -3.9575   -3.7577 O.3       1 <0>        -0.4996
     20 C17        -0.4410   -0.5362    0.1540 C.ar      1 <0>        -0.1011
     21 C18        -1.2465   -0.9162    1.2116 C.ar      1 <0>        -0.0653
     22 C19        -2.6213   -0.8621    1.0885 C.ar      1 <0>        -0.1418
     23 C20        -3.1937   -0.4256   -0.0975 C.ar      1 <0>         0.1095
     24 C21        -2.3833   -0.0445   -1.1571 C.ar      1 <0>        -0.1992
     25 C22        -1.0089   -0.0956   -1.0271 C.ar      1 <0>        -0.0737
     26 O3         -4.5460   -0.3719   -0.2213 O.3       1 <0>        -0.3292
     27 C23        -5.0654    0.0874   -1.4708 C.3       1 <0>         0.0262
     28 C24        -6.5945    0.0791   -1.4215 C.3       1 <0>        -0.0010
     29 N2         -7.0570    1.0348   -0.4063 N.4       1 <0>        -0.3838
     30 C25        -8.5114    0.9146   -0.2498 C.3       1 <0>        -0.0072
     31 C26        -8.9875    1.8502    0.8635 C.3       1 <0>        -0.1466
     32 C27        -8.6295    3.2936    0.4977 C.3       1 <0>        -0.1389
     33 C28        -7.1192    3.3909    0.2640 C.3       1 <0>        -0.1452
     34 C29        -6.7123    2.3982   -0.8270 C.3       1 <0>        -0.0130
     35 H1          2.7171    0.7781    0.2890 H         1 <0>         0.0713
     36 H2          1.4658    1.1336   -0.9260 H         1 <0>         0.0689
     37 H3          1.1676    1.4958    0.7910 H         1 <0>         0.0667
     38 H4          1.2028   -0.1219   -2.3184 H         1 <0>         0.1263
     39 H5          2.0763   -1.5602   -4.1081 H         1 <0>         0.1302
     40 H6          3.0232   -4.5525   -1.2141 H         1 <0>         0.1293
     41 H7          1.9695   -4.3424    0.9750 H         1 <0>         0.0834
     42 H8          3.2321   -3.1479    1.3424 H         1 <0>         0.0823
     43 H9          0.2213   -2.8333    1.6514 H         1 <0>         0.0641
     44 H10         1.4712   -2.7531    2.9215 H         1 <0>         0.0824
     45 H11        -0.0872    0.3361    3.2749 H         1 <0>         0.1223
     46 H12         0.7373    1.8548    5.0255 H         1 <0>         0.1275
     47 H13         3.1562    2.1501    5.3646 H         1 <0>         0.1295
     48 H14         3.9418   -0.6081    2.1970 H         1 <0>         0.1276
     49 H15         5.4234    0.3371    4.6212 H         1 <0>         0.3937
     50 H16         4.0259   -3.8363   -3.9409 H         1 <0>         0.3944
     51 H17        -0.8004   -1.2558    2.1347 H         1 <0>         0.1424
     52 H18        -3.2501   -1.1596    1.9147 H         1 <0>         0.1309
     53 H19        -2.8265    0.2955   -2.0814 H         1 <0>         0.1261
     54 H20        -0.3776    0.2052   -1.8501 H         1 <0>         0.1311
     55 H21        -4.7135    1.1016   -1.6598 H         1 <0>         0.0855
     56 H22        -4.7240   -0.5705   -2.2700 H         1 <0>         0.1085
     57 H23        -6.9910    0.3639   -2.3961 H         1 <0>         0.1485
     58 H24        -6.9444   -0.9209   -1.1652 H         1 <0>         0.1422
     59 H25        -9.0008    1.1854   -1.1854 H         1 <0>         0.1291
     60 H26        -8.7649   -0.1139    0.0074 H         1 <0>         0.1309
     61 H27       -10.0679    1.7608    0.9770 H         1 <0>         0.1130
     62 H28        -8.4990    1.5801    1.7997 H         1 <0>         0.0879
     63 H29        -9.1582    3.5811   -0.4111 H         1 <0>         0.0820
     64 H30        -8.9158    3.9579    1.3130 H         1 <0>         0.0947
     65 H31        -6.8641    4.4027   -0.0510 H         1 <0>         0.1122
     66 H32        -6.5918    3.1528    1.1878 H         1 <0>         0.0878
     67 H33        -5.6376    2.4651   -0.9961 H         1 <0>         0.1273
     68 H34        -7.2400    2.6373   -1.7503 H         1 <0>         0.1300
     69 H35        -6.6080    0.8321    0.4743 H         1 <0>         0.4293
@<TRIPOS>BOND
     1    1    2 1
     2    1   35 1
     3    1   36 1
     4    1   37 1
     5    2   11 1
     6    2    3 1
     7    2   20 1
     8    3    8 ar
     9    3    4 ar
    10    4    5 ar
    11    4   38 1
    12    5    6 ar
    13    5   39 1
    14    6    7 ar
    15    6   19 1
    16    7    8 ar
    17    7   40 1
    18    8    9 1
    19    9   10 1
    20    9   41 1
    21    9   42 1
    22   10   11 1
    23   10   43 1
    24   10   44 1
    25   11   12 1
    26   12   17 ar
    27   12   13 ar
    28   13   14 ar
    29   13   45 1
    30   14   15 ar
    31   14   46 1
    32   15   16 ar
    33   15   47 1
    34   16   17 ar
    35   16   18 1
    36   17   48 1
    37   18   49 1
    38   19   50 1
    39   20   25 ar
    40   20   21 ar
    41   21   22 ar
    42   21   51 1
    43   22   23 ar
    44   22   52 1
    45   23   24 ar
    46   23   26 1
    47   24   25 ar
    48   24   53 1
    49   25   54 1
    50   26   27 1
    51   27   28 1
    52   27   55 1
    53   27   56 1
    54   28   29 1
    55   28   57 1
    56   28   58 1
    57   29   34 1
    58   29   30 1
    59   29   69 1
    60   30   31 1
    61   30   59 1
    62   30   60 1
    63   31   32 1
    64   31   61 1
    65   31   62 1
    66   32   33 1
    67   32   63 1
    68   32   64 1
    69   33   34 1
    70   33   65 1
    71   33   66 1
    72   34   67 1
    73   34   68 1
