@<TRIPOS>MOLECULE
CHEMBL184360
   70    75     0     0     0
SMALL
USER_CHARGES

@<TRIPOS>ATOM
      1 C1          0.3603   -0.1502   -0.8568 C.ar      1 <0>        -0.0874
      2 C2          1.4885    0.6383   -0.9750 C.ar      1 <0>        -0.1389
      3 C3          1.4724    1.9446   -0.5083 C.ar      1 <0>         0.1157
      4 C4          0.3227    2.4558    0.0762 C.ar      1 <0>        -0.1460
      5 C5         -0.8029    1.6633    0.1920 C.ar      1 <0>        -0.0836
      6 C6         -0.7843    0.3616   -0.2739 C.ar      1 <0>        -0.0896
      7 C7         -2.0137   -0.5005   -0.1466 C.3       1 <0>        -0.0641
      8 H1         -2.8832    0.1212    0.0669 H         1 <0>         0.1382
      9 C8         -1.8173   -1.5320    0.9770 C.3       1 <0>         0.1498
     10 H2         -2.6543   -2.2303    0.9812 H         1 <0>         0.0962
     11 O1         -0.6088   -2.2408    0.7495 O.3       1 <0>        -0.3049
     12 C9         -0.3982   -2.9553   -0.3808 C.ar      1 <0>         0.1212
     13 C10         0.5346   -3.9883   -0.3263 C.ar      1 <0>        -0.1140
     14 C11         0.8103   -4.7469   -1.4451 C.ar      1 <0>        -0.1061
     15 C12         0.1595   -4.4878   -2.6425 C.ar      1 <0>         0.0985
     16 C13        -0.7748   -3.4669   -2.7073 C.ar      1 <0>        -0.0901
     17 C14        -1.0579   -2.7077   -1.5795 C.ar      1 <0>        -0.1477
     18 S1         -2.2804   -1.4334   -1.6870 S.3       1 <0>        -0.0843
     19 O2          0.4373   -5.2314   -3.7465 O.3       1 <0>        -0.4915
     20 C15        -1.7456   -0.8232    2.3049 C.ar      1 <0>        -0.1048
     21 C16        -0.5689   -0.2136    2.6992 C.ar      1 <0>        -0.0346
     22 C17        -0.5004    0.4364    3.9163 C.ar      1 <0>        -0.1416
     23 C18        -1.6138    0.4776    4.7429 C.ar      1 <0>         0.1249
     24 C19        -2.7935   -0.1344    4.3448 C.ar      1 <0>        -0.2037
     25 C20        -2.8583   -0.7787    3.1245 C.ar      1 <0>        -0.0588
     26 O3         -1.5489    1.1160    5.9409 O.3       1 <0>        -0.3266
     27 C21        -2.7337    1.1184    6.7398 C.3       1 <0>         0.0277
     28 C22        -2.4698    1.8785    8.0411 C.3       1 <0>        -0.0037
     29 N1         -2.1879    3.2808    7.7378 N.4       1 <0>        -0.3710
     30 C23        -1.7231    3.9935    8.9261 C.3       1 <0>         0.0342
     31 C24        -2.7853    4.0215   10.0161 C.3       1 <0>        -0.1364
     32 C25        -4.0910    4.6283    9.5114 C.3       1 <0>        -0.1370
     33 C26        -4.5125    4.0064    8.1848 C.3       1 <0>        -0.1350
     34 C27        -3.3678    3.9452    7.1878 C.3       1 <0>         0.0279
     35 C28        -2.9856    5.3360    6.6895 C.3       1 <0>        -0.1353
     36 C29        -2.3218    6.1711    7.7755 C.3       1 <0>        -0.1387
     37 C30        -1.2666    5.3979    8.5524 C.3       1 <0>        -0.1367
     38 O4          2.5811    2.7221   -0.6230 O.3       1 <0>        -0.4998
     39 H3          0.3709   -1.1658   -1.2240 H         1 <0>         0.1322
     40 H4          2.3824    0.2379   -1.4300 H         1 <0>         0.1314
     41 H5          0.3078    3.4724    0.4406 H         1 <0>         0.1293
     42 H6         -1.6981    2.0608    0.6469 H         1 <0>         0.1235
     43 H7          1.0472   -4.1973    0.6010 H         1 <0>         0.1413
     44 H8          1.5357   -5.5450   -1.3887 H         1 <0>         0.1429
     45 H9         -1.2839   -3.2608   -3.6372 H         1 <0>         0.1404
     46 H10        -0.1197   -6.0160   -3.8426 H         1 <0>         0.3946
     47 H11         0.2976   -0.2459    2.0553 H         1 <0>         0.1387
     48 H12         0.4191    0.9118    4.2241 H         1 <0>         0.1352
     49 H13        -3.6616   -0.1038    4.9866 H         1 <0>         0.1312
     50 H14        -3.7777   -1.2515    2.8122 H         1 <0>         0.1346
     51 H15        -3.5404    1.6051    6.1919 H         1 <0>         0.0859
     52 H16        -3.0186    0.0918    6.9701 H         1 <0>         0.1099
     53 H17        -3.3481    1.8152    8.6834 H         1 <0>         0.1482
     54 H18        -1.6135    1.4381    8.5520 H         1 <0>         0.1424
     55 H19        -0.8505    3.4493    9.3195 H         1 <0>         0.1306
     56 H20        -2.9673    3.0176   10.4004 H         1 <0>         0.0873
     57 H21        -2.4151    4.6321   10.8521 H         1 <0>         0.1080
     58 H22        -4.8781    4.4156   10.2560 H         1 <0>         0.0865
     59 H23        -4.0159    5.7067    9.4330 H         1 <0>         0.0903
     60 H24        -4.9151    3.0052    8.3609 H         1 <0>         0.0853
     61 H25        -5.3249    4.6103    7.7550 H         1 <0>         0.1082
     62 H26        -3.7036    3.3598    6.3180 H         1 <0>         0.1267
     63 H27        -2.3030    5.2347    5.8393 H         1 <0>         0.0863
     64 H28        -3.8885    5.8482    6.3389 H         1 <0>         0.1098
     65 H29        -1.8216    7.0289    7.2851 H         1 <0>         0.0868
     66 H30        -3.0635    6.6003    8.4444 H         1 <0>         0.0884
     67 H31        -1.0159    5.9465    9.4682 H         1 <0>         0.1108
     68 H32        -0.3530    5.3261    7.9492 H         1 <0>         0.0869
     69 H33         2.6244    3.2262   -1.4470 H         1 <0>         0.3954
     70 H34        -1.4497    3.3161    7.0384 H         1 <0>         0.4290
@<TRIPOS>BOND
     1    1    6 ar
     2    1    2 ar
     3    1   39 1
     4    2    3 ar
     5    2   40 1
     6    3    4 ar
     7    3   38 1
     8    4    5 ar
     9    4   41 1
    10    5    6 ar
    11    5   42 1
    12    6    7 1
    13    7    8 1
    14    7   18 1
    15    7    9 1
    16    9   10 1
    17    9   11 1
    18    9   20 1
    19   11   12 1
    20   12   17 ar
    21   12   13 ar
    22   13   14 ar
    23   13   43 1
    24   14   15 ar
    25   14   44 1
    26   15   16 ar
    27   15   19 1
    28   16   17 ar
    29   16   45 1
    30   17   18 1
    31   19   46 1
    32   20   25 ar
    33   20   21 ar
    34   21   22 ar
    35   21   47 1
    36   22   23 ar
    37   22   48 1
    38   23   24 ar
    39   23   26 1
    40   24   25 ar
    41   24   49 1
    42   25   50 1
    43   26   27 1
    44   27   28 1
    45   27   51 1
    46   27   52 1
    47   28   29 1
    48   28   53 1
    49   28   54 1
    50   29   34 1
    51   29   30 1
    52   29   70 1
    53   30   37 1
    54   30   31 1
    55   30   55 1
    56   31   32 1
    57   31   56 1
    58   31   57 1
    59   32   33 1
    60   32   58 1
    61   32   59 1
    62   33   34 1
    63   33   60 1
    64   33   61 1
    65   34   35 1
    66   34   62 1
    67   35   36 1
    68   35   63 1
    69   35   64 1
    70   36   37 1
    71   36   65 1
    72   36   66 1
    73   37   67 1
    74   37   68 1
    75   38   69 1
