@<TRIPOS>MOLECULE
CHEMBL362718
   61    65     0     0     0
SMALL
USER_CHARGES

@<TRIPOS>ATOM
      1 C1          0.3555   -0.1246   -0.8681 C.ar      1 <0>        -0.0872
      2 C2          1.4788    0.6705   -0.9875 C.ar      1 <0>        -0.1388
      3 C3          1.4576    1.9746   -0.5148 C.ar      1 <0>         0.1160
      4 C4          0.3077    2.4768    0.0769 C.ar      1 <0>        -0.1463
      5 C5         -0.8130    1.6777    0.1940 C.ar      1 <0>        -0.0839
      6 C6         -0.7893    0.3782   -0.2779 C.ar      1 <0>        -0.0901
      7 C7         -2.0134   -0.4912   -0.1493 C.3       1 <0>        -0.0642
      8 H1         -2.8862    0.1252    0.0662 H         1 <0>         0.1382
      9 C8         -1.8091   -1.5224    0.9731 C.3       1 <0>         0.1493
     10 H2         -2.6419   -2.2256    0.9782 H         1 <0>         0.0965
     11 O1         -0.5968   -2.2240    0.7431 O.3       1 <0>        -0.3050
     12 C9         -0.3839   -2.9363   -0.3882 C.ar      1 <0>         0.1209
     13 C10         0.5550   -3.9639   -0.3360 C.ar      1 <0>        -0.1139
     14 C11         0.8334   -4.7199   -1.4559 C.ar      1 <0>        -0.1061
     15 C12         0.1790   -4.4636   -2.6520 C.ar      1 <0>         0.0989
     16 C13        -0.7614   -3.4482   -2.7144 C.ar      1 <0>        -0.0901
     17 C14        -1.0470   -2.6916   -1.5855 C.ar      1 <0>        -0.1478
     18 S1         -2.2772   -1.4245   -1.6900 S.3       1 <0>        -0.0835
     19 O2          0.4593   -5.2047   -3.7571 O.3       1 <0>        -0.4915
     20 C15        -1.7393   -0.8143    2.3016 C.ar      1 <0>        -0.1031
     21 C16        -0.5656   -0.1981    2.6944 C.ar      1 <0>        -0.0344
     22 C17        -0.4989    0.4513    3.9118 C.ar      1 <0>        -0.1410
     23 C18        -1.6111    0.4853    4.7404 C.ar      1 <0>         0.1227
     24 C19        -2.7878   -0.1333    4.3437 C.ar      1 <0>        -0.2031
     25 C20        -2.8509   -0.7770    3.1230 C.ar      1 <0>        -0.0587
     26 O3         -1.5479    1.1232    5.9387 O.3       1 <0>        -0.3279
     27 C21        -2.7314    1.1179    6.7396 C.3       1 <0>         0.0237
     28 C22        -2.4698    1.8785    8.0411 C.3       1 <0>        -0.0010
     29 N1         -2.1866    3.2874    7.7364 N.4       1 <0>        -0.3909
     30 C23        -1.7473    3.9638    8.9586 C.3       1 <0>        -0.0113
     31 C24        -1.0981    5.3073    8.6057 C.3       1 <0>        -0.1281
     32 S2         -2.3517    6.3524    7.8000 S.3       1 <0>        -0.1884
     33 C25        -3.0330    5.2462    6.5252 C.3       1 <0>        -0.1268
     34 C26        -3.3928    3.9119    7.1893 C.3       1 <0>        -0.0183
     35 O4          2.5615    2.7587   -0.6307 O.3       1 <0>        -0.4999
     36 H3          0.3701   -1.1384   -1.2400 H         1 <0>         0.1323
     37 H4          2.3729    0.2772   -1.4482 H         1 <0>         0.1316
     38 H5          0.2888    3.4916    0.4461 H         1 <0>         0.1293
     39 H6         -1.7085    2.0681    0.6546 H         1 <0>         0.1233
     40 H7          1.0705   -4.1706    0.5903 H         1 <0>         0.1413
     41 H8          1.5636   -5.5137   -1.4014 H         1 <0>         0.1431
     42 H9         -1.2733   -3.2443   -3.6433 H         1 <0>         0.1406
     43 H10        -0.0932   -5.9925   -3.8529 H         1 <0>         0.3947
     44 H11         0.3000   -0.2248    2.0490 H         1 <0>         0.1393
     45 H12         0.4184    0.9319    4.2185 H         1 <0>         0.1351
     46 H13        -3.6550   -0.1083    4.9870 H         1 <0>         0.1315
     47 H14        -3.7680   -1.2550    2.8118 H         1 <0>         0.1353
     48 H15        -3.5419    1.6003    6.1934 H         1 <0>         0.0877
     49 H16        -3.0099    0.0894    6.9696 H         1 <0>         0.1136
     50 H17        -3.3491    1.8151    8.6821 H         1 <0>         0.1539
     51 H18        -1.6142    1.4385    8.5534 H         1 <0>         0.1469
     52 H19        -2.6069    4.1360    9.6062 H         1 <0>         0.1446
     53 H20        -1.0230    3.3371    9.4789 H         1 <0>         0.1462
     54 H21        -0.7428    5.7936    9.5141 H         1 <0>         0.1557
     55 H22        -0.2627    5.1442    7.9247 H         1 <0>         0.1116
     56 H23        -3.9270    5.6932    6.0904 H         1 <0>         0.1546
     57 H24        -2.2885    5.0803    5.7465 H         1 <0>         0.1111
     58 H25        -3.8405    3.2482    6.4496 H         1 <0>         0.1417
     59 H26        -4.1060    4.0887    7.9944 H         1 <0>         0.1460
     60 H27         2.5985    3.2668   -1.4526 H         1 <0>         0.3957
     61 H28        -1.4489    3.3352    7.0496 H         1 <0>         0.4286
@<TRIPOS>BOND
     1    1    6 ar
     2    1    2 ar
     3    1   36 1
     4    2    3 ar
     5    2   37 1
     6    3    4 ar
     7    3   35 1
     8    4    5 ar
     9    4   38 1
    10    5    6 ar
    11    5   39 1
    12    6    7 1
    13    7    8 1
    14    7   18 1
    15    7    9 1
    16    9   10 1
    17    9   11 1
    18    9   20 1
    19   11   12 1
    20   12   17 ar
    21   12   13 ar
    22   13   14 ar
    23   13   40 1
    24   14   15 ar
    25   14   41 1
    26   15   16 ar
    27   15   19 1
    28   16   17 ar
    29   16   42 1
    30   17   18 1
    31   19   43 1
    32   20   25 ar
    33   20   21 ar
    34   21   22 ar
    35   21   44 1
    36   22   23 ar
    37   22   45 1
    38   23   24 ar
    39   23   26 1
    40   24   25 ar
    41   24   46 1
    42   25   47 1
    43   26   27 1
    44   27   28 1
    45   27   48 1
    46   27   49 1
    47   28   29 1
    48   28   50 1
    49   28   51 1
    50   29   34 1
    51   29   30 1
    52   29   61 1
    53   30   31 1
    54   30   52 1
    55   30   53 1
    56   31   32 1
    57   31   54 1
    58   31   55 1
    59   32   33 1
    60   33   34 1
    61   33   56 1
    62   33   57 1
    63   34   58 1
    64   34   59 1
    65   35   60 1
