@<TRIPOS>MOLECULE
CHEMBL370849
   60    65     0     0     0
SMALL
USER_CHARGES

@<TRIPOS>ATOM
      1 C1         -0.0167    1.3784    0.0096 C.ar      1 <0>        -0.0557
      2 C2          1.1695    2.0865    0.0021 C.ar      1 <0>        -0.1407
      3 C3          2.3802    1.4093   -0.0131 C.ar      1 <0>         0.1215
      4 C4          2.3963    0.0221   -0.0206 C.ar      1 <0>        -0.2000
      5 C5          1.2074   -0.6814   -0.0130 C.ar      1 <0>        -0.0633
      6 C6          0.0021   -0.0041    0.0020 C.ar      1 <0>        -0.1353
      7 C7         -1.2934   -0.7740    0.0107 C.3       1 <0>         0.1477
      8 N1         -1.7268   -1.0161   -1.3676 N.pl3     1 <0>        -0.4679
      9 C8         -2.5330   -0.1693   -2.0978 C.ar      1 <0>         0.1322
     10 C9         -3.1340    1.0514   -1.8070 C.ar      1 <0>        -0.1199
     11 C10        -3.9055    1.6853   -2.7556 C.ar      1 <0>        -0.1037
     12 C11        -4.0932    1.1150   -4.0115 C.ar      1 <0>         0.0829
     13 C12        -3.5061   -0.0956   -4.3199 C.ar      1 <0>        -0.0876
     14 C13        -2.7202   -0.7481   -3.3659 C.ar      1 <0>        -0.0425
     15 C14        -1.9733   -1.9987   -3.3498 C.2       1 <0>        -0.1760
     16 C15        -1.3742   -2.1399   -2.1315 C.2       1 <0>         0.0953
     17 C16        -0.5626   -3.3553   -1.9315 C.ar      1 <0>        -0.0742
     18 C17         0.1504   -3.7323   -0.7696 C.ar      1 <0>        -0.0738
     19 C18         0.8596   -4.8920   -0.7359 C.ar      1 <0>        -0.1431
     20 C19         0.9096   -5.7448   -1.8359 C.ar      1 <0>         0.1375
     21 C20         0.2227   -5.4068   -2.9912 C.ar      1 <0>        -0.0971
     22 C21        -0.4981   -4.2317   -3.0306 C.ar      1 <0>        -0.0869
     23 S1         -1.4999   -3.4426   -4.2639 S.3       1 <0>         0.1202
     24 O1          1.6262   -6.8984   -1.7771 O.3       1 <0>        -0.4917
     25 O2         -4.8581    1.7526   -4.9378 O.3       1 <0>        -0.4933
     26 O3          3.5484    2.1036   -0.0209 O.3       1 <0>        -0.3238
     27 C22         4.7565    1.3405   -0.0365 C.3       1 <0>         0.0272
     28 C23         5.9580    2.2878   -0.0434 C.3       1 <0>         0.0013
     29 N2          5.9923    3.0443    1.2153 N.4       1 <0>        -0.3912
     30 C24         4.8165    3.9374    1.2913 C.3       1 <0>        -0.0016
     31 C25         5.3362    5.2166    1.9935 C.3       1 <0>        -0.1456
     32 C26         6.7651    5.3403    1.4022 C.3       1 <0>        -0.1420
     33 C27         7.2129    3.8699    1.2649 C.3       1 <0>        -0.0136
     34 H1         -0.9594    1.9052    0.0259 H         1 <0>         0.1358
     35 H2          1.1543    3.1664    0.0076 H         1 <0>         0.1358
     36 H3          3.3375   -0.5074   -0.0328 H         1 <0>         0.1300
     37 H4          1.2194   -1.7613   -0.0189 H         1 <0>         0.1325
     38 H5         -1.1460   -1.7274    0.5180 H         1 <0>         0.0980
     39 H6         -2.0553   -0.1973    0.5352 H         1 <0>         0.1036
     40 H7         -2.9956    1.5025   -0.8355 H         1 <0>         0.1272
     41 H8         -4.3690    2.6326   -2.5229 H         1 <0>         0.1385
     42 H9         -3.6534   -0.5369   -5.2945 H         1 <0>         0.1346
     43 H10         0.1317   -3.0921    0.0999 H         1 <0>         0.1252
     44 H11         1.3960   -5.1573    0.1632 H         1 <0>         0.1361
     45 H12         0.2519   -6.0574   -3.8528 H         1 <0>         0.1461
     46 H13         1.1207   -7.6597   -1.4610 H         1 <0>         0.3998
     47 H14        -4.3641    2.3605   -5.5048 H         1 <0>         0.3901
     48 H15         4.7979    0.7076    0.8500 H         1 <0>         0.0866
     49 H16         4.7806    0.7165   -0.9299 H         1 <0>         0.1094
     50 H17         6.8762    1.7093   -0.1448 H         1 <0>         0.1498
     51 H18         5.8702    2.9798   -0.8810 H         1 <0>         0.1408
     52 H19         4.4545    4.1741    0.2908 H         1 <0>         0.1373
     53 H20         4.0261    3.4746    1.8822 H         1 <0>         0.1336
     54 H21         4.7279    6.0816    1.7291 H         1 <0>         0.1163
     55 H22         5.3713    5.0818    3.0746 H         1 <0>         0.0970
     56 H23         6.7380    5.8275    0.4275 H         1 <0>         0.0987
     57 H24         7.4198    5.8803    2.0861 H         1 <0>         0.1128
     58 H25         7.8187    3.5849    2.1251 H         1 <0>         0.1329
     59 H26         7.7854    3.7409    0.3463 H         1 <0>         0.1319
     60 H27         5.9824    2.4058    1.9965 H         1 <0>         0.4245
@<TRIPOS>BOND
     1    1    6 ar
     2    1    2 ar
     3    1   34 1
     4    2    3 ar
     5    2   35 1
     6    3    4 ar
     7    3   26 1
     8    4    5 ar
     9    4   36 1
    10    5    6 ar
    11    5   37 1
    12    6    7 1
    13    7    8 1
    14    7   38 1
    15    7   39 1
    16    8   16 1
    17    8    9 1
    18    9   14 ar
    19    9   10 ar
    20   10   11 ar
    21   10   40 1
    22   11   12 ar
    23   11   41 1
    24   12   13 ar
    25   12   25 1
    26   13   14 ar
    27   13   42 1
    28   14   15 1
    29   15   23 1
    30   15   16 2
    31   16   17 1
    32   17   22 ar
    33   17   18 ar
    34   18   19 ar
    35   18   43 1
    36   19   20 ar
    37   19   44 1
    38   20   21 ar
    39   20   24 1
    40   21   22 ar
    41   21   45 1
    42   22   23 1
    43   24   46 1
    44   25   47 1
    45   26   27 1
    46   27   28 1
    47   27   48 1
    48   27   49 1
    49   28   29 1
    50   28   50 1
    51   28   51 1
    52   29   33 1
    53   29   30 1
    54   29   60 1
    55   30   31 1
    56   30   52 1
    57   30   53 1
    58   31   32 1
    59   31   54 1
    60   31   55 1
    61   32   33 1
    62   32   56 1
    63   32   57 1
    64   33   58 1
    65   33   59 1
