@<TRIPOS>MOLECULE
CHEMBL184598
   64    69     0     0     0
SMALL
USER_CHARGES

@<TRIPOS>ATOM
      1 C1          0.2247   -0.1306   -0.9044 C.ar      1 <0>        -0.0873
      2 C2          1.3531    0.6552   -1.0367 C.ar      1 <0>        -0.1389
      3 C3          1.3478    1.9597   -0.5645 C.ar      1 <0>         0.1157
      4 C4          0.2087    2.4717    0.0396 C.ar      1 <0>        -0.1462
      5 C5         -0.9172    1.6818    0.1694 C.ar      1 <0>        -0.0837
      6 C6         -0.9094    0.3820   -0.3020 C.ar      1 <0>        -0.0898
      7 C7         -2.1392   -0.4773   -0.1594 C.3       1 <0>        -0.0641
      8 H1         -3.0038    0.1461    0.0687 H         1 <0>         0.1382
      9 C8         -1.9292   -1.5126    0.9582 C.3       1 <0>         0.1497
     10 H2         -2.7679   -2.2087    0.9725 H         1 <0>         0.0962
     11 O1         -0.7260   -2.2240    0.7111 O.3       1 <0>        -0.3049
     12 C9         -0.5339   -2.9356   -0.4243 C.ar      1 <0>         0.1211
     13 C10         0.3968   -3.9713   -0.3863 C.ar      1 <0>        -0.1140
     14 C11         0.6543   -4.7272   -1.5113 C.ar      1 <0>        -0.1061
     15 C12        -0.0132   -4.4628   -2.6983 C.ar      1 <0>         0.0985
     16 C13        -0.9456   -3.4392   -2.7465 C.ar      1 <0>        -0.0901
     17 C14        -1.2102   -2.6827   -1.6125 C.ar      1 <0>        -0.1477
     18 S1         -2.4307   -1.4049   -1.6985 S.3       1 <0>        -0.0841
     19 O2          0.2465   -5.2039   -3.8084 O.3       1 <0>        -0.4915
     20 C15        -1.8363   -0.8079    2.2871 C.ar      1 <0>        -0.1047
     21 C16        -0.6524   -0.2026    2.6660 C.ar      1 <0>        -0.0346
     22 C17        -0.5645    0.4436    3.8838 C.ar      1 <0>        -0.1419
     23 C18        -1.6656    0.4852    4.7267 C.ar      1 <0>         0.1246
     24 C19        -2.8526   -0.1225    4.3440 C.ar      1 <0>        -0.2034
     25 C20        -2.9369   -0.7630    3.1229 C.ar      1 <0>        -0.0589
     26 O3         -1.5816    1.1199    5.9254 O.3       1 <0>        -0.3269
     27 C21        -2.7546    1.1229    6.7416 C.3       1 <0>         0.0270
     28 C22        -2.4698    1.8785    8.0411 C.3       1 <0>         0.0052
     29 N1         -2.1866    3.2874    7.7364 N.4       1 <0>        -0.4018
     30 C23        -1.8431    4.0233    8.9910 C.3       1 <0>         0.0110
     31 C24        -3.0073    4.9482    9.2266 C.3       1 <0>        -0.1644
     32 C25        -3.0851    6.4317    9.3805 C.3       1 <0>        -0.1041
     33 C26        -4.2988    6.2153    8.4126 C.3       1 <0>        -0.1042
     34 C27        -3.2902    5.3557    7.7174 C.3       1 <0>        -0.1689
     35 C28        -3.4101    3.9471    7.1741 C.3       1 <0>         0.0097
     36 O4          2.4568    2.7346   -0.6930 O.3       1 <0>        -0.4999
     37 H3          0.2268   -1.1447   -1.2759 H         1 <0>         0.1323
     38 H4          2.2388    0.2543   -1.5070 H         1 <0>         0.1315
     39 H5          0.2022    3.4868    0.4083 H         1 <0>         0.1293
     40 H6         -1.8043    2.0799    0.6396 H         1 <0>         0.1235
     41 H7          0.9224   -4.1844    0.5328 H         1 <0>         0.1413
     42 H8          1.3783   -5.5274   -1.4678 H         1 <0>         0.1429
     43 H9         -1.4676   -3.2290   -3.6683 H         1 <0>         0.1405
     44 H10        -0.3139   -5.9867   -3.8987 H         1 <0>         0.3946
     45 H11         0.2045   -0.2353    2.0095 H         1 <0>         0.1387
     46 H12         0.3607    0.9156    4.1797 H         1 <0>         0.1350
     47 H13        -3.7112   -0.0915    4.9984 H         1 <0>         0.1313
     48 H14        -3.8620   -1.2325    2.8225 H         1 <0>         0.1347
     49 H15        -3.5679    1.6135    6.2068 H         1 <0>         0.0860
     50 H16        -3.0389    0.0964    6.9730 H         1 <0>         0.1085
     51 H17        -3.3390    1.8160    8.6958 H         1 <0>         0.1470
     52 H18        -1.6077    1.4340    8.5384 H         1 <0>         0.1416
     53 H19        -1.7378    3.3266    9.8227 H         1 <0>         0.1352
     54 H20        -0.9253    4.5956    8.8560 H         1 <0>         0.1340
     55 H21        -3.8693    4.4340    9.6515 H         1 <0>         0.1206
     56 H22        -3.3559    6.7714   10.3802 H         1 <0>         0.0922
     57 H23        -2.2485    6.9783    8.9452 H         1 <0>         0.1054
     58 H24        -5.1357    5.6703    8.8492 H         1 <0>         0.1052
     59 H25        -4.5991    7.1030    7.8560 H         1 <0>         0.0920
     60 H26        -2.4727    5.9153    7.2629 H         1 <0>         0.1255
     61 H27        -3.3850    3.9477    6.0844 H         1 <0>         0.1339
     62 H28        -4.3154    3.4646    7.5425 H         1 <0>         0.1332
     63 H29         2.4890    3.2420   -1.5156 H         1 <0>         0.3955
     64 H30        -1.4252    3.3527    7.0775 H         1 <0>         0.4338
@<TRIPOS>BOND
     1    1    6 ar
     2    1    2 ar
     3    1   37 1
     4    2    3 ar
     5    2   38 1
     6    3    4 ar
     7    3   36 1
     8    4    5 ar
     9    4   39 1
    10    5    6 ar
    11    5   40 1
    12    6    7 1
    13    7    8 1
    14    7   18 1
    15    7    9 1
    16    9   10 1
    17    9   11 1
    18    9   20 1
    19   11   12 1
    20   12   17 ar
    21   12   13 ar
    22   13   14 ar
    23   13   41 1
    24   14   15 ar
    25   14   42 1
    26   15   16 ar
    27   15   19 1
    28   16   17 ar
    29   16   43 1
    30   17   18 1
    31   19   44 1
    32   20   25 ar
    33   20   21 ar
    34   21   22 ar
    35   21   45 1
    36   22   23 ar
    37   22   46 1
    38   23   24 ar
    39   23   26 1
    40   24   25 ar
    41   24   47 1
    42   25   48 1
    43   26   27 1
    44   27   28 1
    45   27   49 1
    46   27   50 1
    47   28   29 1
    48   28   51 1
    49   28   52 1
    50   29   35 1
    51   29   30 1
    52   29   64 1
    53   30   31 1
    54   30   53 1
    55   30   54 1
    56   31   34 1
    57   31   32 1
    58   31   55 1
    59   32   33 1
    60   32   56 1
    61   32   57 1
    62   33   34 1
    63   33   58 1
    64   33   59 1
    65   34   35 1
    66   34   60 1
    67   35   61 1
    68   35   62 1
    69   36   63 1
