@<TRIPOS>MOLECULE
CHEMBL30950
   67    71     0     0     0
SMALL
USER_CHARGES

@<TRIPOS>ATOM
      1 C1          0.7761    1.6395    0.1368 C.3       1 <0>        -0.1320
      2 C2          0.6900    0.1353    0.1049 C.ar      1 <0>         0.0340
      3 C3          0.6729   -0.5249   -1.0910 C.ar      1 <0>        -0.1895
      4 C4          0.5934   -1.9146   -1.1244 C.ar      1 <0>         0.1888
      5 C5          0.5276   -2.6463    0.0529 C.ar      1 <0>        -0.1971
      6 C6          0.5415   -1.9924    1.2740 C.ar      1 <0>         0.1932
      7 C7          0.6331   -0.5891    1.2987 C.ar      1 <0>        -0.2618
      8 C8          0.6670    0.1003    2.5974 C.2       1 <0>         0.4081
      9 O1          0.9559    1.2752    2.6889 O.2       1 <0>        -0.4241
     10 C9          0.3210   -0.7343    3.8177 C.3       1 <0>        -0.1163
     11 H1          0.7148   -0.2591    4.7162 H         1 <0>         0.1240
     12 C10         0.9733   -2.1112    3.6255 C.3       1 <0>         0.1513
     13 H2          2.0550   -1.9950    3.5574 H         1 <0>         0.0962
     14 O2          0.4701   -2.7032    2.4234 O.3       1 <0>        -0.2986
     15 C11         0.6354   -2.9958    4.7979 C.ar      1 <0>        -0.1051
     16 C12        -0.5482   -3.7105    4.8046 C.ar      1 <0>        -0.0393
     17 C13        -0.8605   -4.5217    5.8783 C.ar      1 <0>        -0.1420
     18 C14         0.0149   -4.6193    6.9502 C.ar      1 <0>         0.1230
     19 C15         1.2021   -3.9015    6.9408 C.ar      1 <0>        -0.2024
     20 C16         1.5121   -3.0957    5.8623 C.ar      1 <0>        -0.0603
     21 O3         -0.2903   -5.4163    8.0078 O.3       1 <0>        -0.3275
     22 C17         0.6577   -5.4681    9.0758 C.3       1 <0>         0.0251
     23 C18         0.1449   -6.4094   10.1676 C.3       1 <0>        -0.0011
     24 N1          0.0475   -7.7737    9.6318 N.4       1 <0>        -0.3842
     25 C19        -0.5893   -8.6444   10.6272 C.3       1 <0>        -0.0070
     26 C20        -0.7668  -10.0478   10.0437 C.3       1 <0>        -0.1467
     27 C21         0.6050  -10.6162    9.6692 C.3       1 <0>        -0.1391
     28 C22         1.2913   -9.6621    8.6875 C.3       1 <0>        -0.1454
     29 C23         1.3925   -8.2729    9.3212 C.3       1 <0>        -0.0131
     30 C24        -1.1743   -0.8841    3.9300 C.ar      1 <0>        -0.0884
     31 C25        -1.8856   -1.4904    2.9110 C.ar      1 <0>        -0.0940
     32 C26        -3.2564   -1.6286    3.0113 C.ar      1 <0>        -0.1434
     33 C27        -3.9193   -1.1587    4.1358 C.ar      1 <0>         0.1156
     34 C28        -3.2033   -0.5511    5.1570 C.ar      1 <0>        -0.1440
     35 C29        -1.8319   -0.4200    5.0542 C.ar      1 <0>        -0.0832
     36 O4         -5.2679   -1.2930    4.2366 O.3       1 <0>        -0.4965
     37 O5          0.5796   -2.5589   -2.3182 O.3       1 <0>        -0.4917
     38 H3          1.8227    1.9432    0.1576 H         1 <0>         0.0850
     39 H4          0.2963    2.0498   -0.7517 H         1 <0>         0.0723
     40 H5          0.2715    2.0135    1.0277 H         1 <0>         0.0910
     41 H6          0.7209    0.0333   -2.0143 H         1 <0>         0.1418
     42 H7          0.4654   -3.7239    0.0171 H         1 <0>         0.1466
     43 H8         -1.2293   -3.6342    3.9699 H         1 <0>         0.1411
     44 H9         -1.7854   -5.0792    5.8834 H         1 <0>         0.1343
     45 H10         1.8851   -3.9758    7.7740 H         1 <0>         0.1312
     46 H11         2.4382   -2.5402    5.8526 H         1 <0>         0.1346
     47 H12         1.6115   -5.8359    8.6976 H         1 <0>         0.0870
     48 H13         0.7922   -4.4693    9.4910 H         1 <0>         0.1100
     49 H14         0.8358   -6.3986   11.0106 H         1 <0>         0.1492
     50 H15        -0.8390   -6.0785   10.5000 H         1 <0>         0.1426
     51 H16         0.0381   -8.6980   11.5169 H         1 <0>         0.1292
     52 H17        -1.5641   -8.2369   10.8951 H         1 <0>         0.1310
     53 H18        -1.2382  -10.6932   10.7849 H         1 <0>         0.1132
     54 H19        -1.3943   -9.9955    9.1540 H         1 <0>         0.0880
     55 H20         1.2153  -10.7167   10.5668 H         1 <0>         0.0821
     56 H21         0.4796  -11.5926    9.2012 H         1 <0>         0.0948
     57 H22         2.2909  -10.0317    8.4592 H         1 <0>         0.1123
     58 H23         0.7065   -9.6017    7.7696 H         1 <0>         0.0880
     59 H24         1.8808   -7.5912    8.6249 H         1 <0>         0.1273
     60 H25         1.9776   -8.3344   10.2387 H         1 <0>         0.1302
     61 H26        -1.3690   -1.8561    2.0359 H         1 <0>         0.1360
     62 H27        -3.8117   -2.1016    2.2149 H         1 <0>         0.1323
     63 H28        -3.7171   -0.1845    6.0333 H         1 <0>         0.1315
     64 H29        -1.2735    0.0489    5.8508 H         1 <0>         0.1275
     65 H30        -5.5508   -2.1166    4.6570 H         1 <0>         0.3918
     66 H31         1.4573   -2.7966   -2.6470 H         1 <0>         0.4031
     67 H32        -0.5094   -7.7646    8.7905 H         1 <0>         0.4294
@<TRIPOS>BOND
     1    1    2 1
     2    1   38 1
     3    1   39 1
     4    1   40 1
     5    2    7 ar
     6    2    3 ar
     7    3    4 ar
     8    3   41 1
     9    4    5 ar
    10    4   37 1
    11    5    6 ar
    12    5   42 1
    13    6   14 1
    14    6    7 ar
    15    7    8 1
    16    8    9 2
    17    8   10 1
    18   10   11 1
    19   10   12 1
    20   10   30 1
    21   12   13 1
    22   12   14 1
    23   12   15 1
    24   15   20 ar
    25   15   16 ar
    26   16   17 ar
    27   16   43 1
    28   17   18 ar
    29   17   44 1
    30   18   19 ar
    31   18   21 1
    32   19   20 ar
    33   19   45 1
    34   20   46 1
    35   21   22 1
    36   22   23 1
    37   22   47 1
    38   22   48 1
    39   23   24 1
    40   23   49 1
    41   23   50 1
    42   24   29 1
    43   24   25 1
    44   24   67 1
    45   25   26 1
    46   25   51 1
    47   25   52 1
    48   26   27 1
    49   26   53 1
    50   26   54 1
    51   27   28 1
    52   27   55 1
    53   27   56 1
    54   28   29 1
    55   28   57 1
    56   28   58 1
    57   29   59 1
    58   29   60 1
    59   30   35 ar
    60   30   31 ar
    61   31   32 ar
    62   31   61 1
    63   32   33 ar
    64   32   62 1
    65   33   34 ar
    66   33   36 1
    67   34   35 ar
    68   34   63 1
    69   35   64 1
    70   36   65 1
    71   37   66 1
