@<TRIPOS>MOLECULE
CHEMBL214692
   47    51     0     0     0
SMALL
USER_CHARGES

@<TRIPOS>ATOM
      1 C1         -0.0187    1.5258    0.0104 C.3       1 <0>        -0.1543
      2 C2          0.0021   -0.0041    0.0020 C.3       1 <0>        -0.1255
      3 C3         -1.4333   -0.5336    0.0129 C.3       1 <0>        -0.1228
      4 C4         -1.4126   -2.0635    0.0045 C.3       1 <0>        -0.1018
      5 C5         -2.8479   -2.5931    0.0153 C.3       1 <0>        -0.0356
      6 C6         -3.6348   -2.1040   -1.2025 C.3       1 <0>        -0.1078
      7 C7         -2.9851   -2.6663   -2.4702 C.3       1 <0>        -0.1625
      8 C8         -2.9539   -4.1712   -2.4264 C.2       1 <0>         0.3999
      9 O1         -2.9696   -4.8067   -3.4603 O.2       1 <0>        -0.4461
     10 C9         -2.9051   -4.8731   -1.1363 C.2       1 <0>        -0.1173
     11 C10        -2.8855   -4.1130    0.0075 C.2       1 <0>         0.0446
     12 C11        -2.9340   -4.5361    1.4070 C.ar      1 <0>        -0.1071
     13 C12        -2.5971   -5.7626    2.0160 C.ar      1 <0>        -0.0388
     14 C13        -2.7857   -5.9500    3.3498 C.ar      1 <0>        -0.1291
     15 C14        -3.3072   -4.9244    4.1366 C.ar      1 <0>         0.1141
     16 C15        -3.6161   -3.6787    3.5598 C.ar      1 <0>        -0.0144
     17 C16        -3.4115   -3.4842    2.1913 C.ar      1 <0>         0.0265
     18 C17        -3.5688   -2.2477    1.3303 C.3       1 <0>        -0.0777
     19 N1         -4.0866   -2.8772    4.5455 N.2       1 <0>        -0.2034
     20 N2         -4.1000   -3.5122    5.6641 N.2       1 <0>         0.0024
     21 N3         -3.6192   -4.8150    5.4691 N.pl3     1 <0>        -0.4953
     22 H1         -3.5255   -5.5049    6.1445 H         1 <0>         0.4509
     23 C18        -2.8773   -6.3475   -1.0717 C.2       1 <0>        -0.0928
     24 C19        -3.8354   -7.2473   -1.4609 C.2       1 <0>        -0.1307
     25 C20        -3.5830   -8.5922   -1.3022 C.2       1 <0>        -0.1514
     26 C21        -2.3982   -8.9847   -0.7674 C.2       1 <0>        -0.1749
     27 S1         -1.5841   -7.4234   -0.4736 S.3       1 <0>         0.0411
     28 H2          1.0039    1.9031    0.0027 H         1 <0>         0.0537
     29 H3         -0.5459    1.8868   -0.8726 H         1 <0>         0.0545
     30 H4         -0.5289    1.8773    0.9072 H         1 <0>         0.0543
     31 H5          0.5123   -0.3556   -0.8948 H         1 <0>         0.0619
     32 H6          0.5293   -0.3651    0.8851 H         1 <0>         0.0612
     33 H7         -1.9435   -0.1821    0.9097 H         1 <0>         0.0687
     34 H8         -1.9605   -0.1726   -0.8702 H         1 <0>         0.0703
     35 H9         -0.9024   -2.4150   -0.8923 H         1 <0>         0.0735
     36 H10        -0.8854   -2.4246    0.8875 H         1 <0>         0.0725
     37 H11        -4.6655   -2.4522   -1.1352 H         1 <0>         0.0785
     38 H12        -3.6170   -1.0147   -1.2354 H         1 <0>         0.0923
     39 H13        -3.5567   -2.3438   -3.3405 H         1 <0>         0.1033
     40 H14        -1.9660   -2.2879   -2.5500 H         1 <0>         0.1079
     41 H15        -2.1855   -6.5615    1.4170 H         1 <0>         0.1510
     42 H16        -2.5307   -6.8974    3.8011 H         1 <0>         0.1408
     43 H17        -3.0965   -1.3894    1.8083 H         1 <0>         0.1031
     44 H18        -4.6238   -2.0466    1.1437 H         1 <0>         0.1026
     45 H19        -4.7698   -6.9085   -1.8834 H         1 <0>         0.1342
     46 H20        -4.3185   -9.3253   -1.5991 H         1 <0>         0.1371
     47 H21        -2.0389   -9.9846   -0.5739 H         1 <0>         0.1883
@<TRIPOS>BOND
     1    1    2 1
     2    1   28 1
     3    1   29 1
     4    1   30 1
     5    2    3 1
     6    2   31 1
     7    2   32 1
     8    3    4 1
     9    3   33 1
    10    3   34 1
    11    4    5 1
    12    4   35 1
    13    4   36 1
    14    5   11 1
    15    5   18 1
    16    5    6 1
    17    6    7 1
    18    6   37 1
    19    6   38 1
    20    7    8 1
    21    7   39 1
    22    7   40 1
    23    8    9 2
    24    8   10 1
    25   10   11 2
    26   10   23 1
    27   11   12 1
    28   12   17 ar
    29   12   13 ar
    30   13   14 ar
    31   13   41 1
    32   14   15 ar
    33   14   42 1
    34   15   21 1
    35   15   16 ar
    36   16   17 ar
    37   16   19 1
    38   17   18 1
    39   18   43 1
    40   18   44 1
    41   19   20 2
    42   20   21 1
    43   21   22 1
    44   23   27 1
    45   23   24 2
    46   24   25 1
    47   24   45 1
    48   25   26 2
    49   25   46 1
    50   26   27 1
    51   26   47 1
