@<TRIPOS>MOLECULE
CHEMBL46903
   62    65     0     0     0
SMALL
USER_CHARGES

@<TRIPOS>ATOM
      1 C1         -0.0184    1.5028    0.0103 C.3       1 <0>        -0.0843
      2 C2          0.0021   -0.0041    0.0020 C.2       1 <0>        -0.1413
      3 C3          0.0091   -0.8675   -1.1778 C.ar      1 <0>        -0.0884
      4 C4         -0.0004   -0.6231   -2.5546 C.ar      1 <0>        -0.0919
      5 C5          0.0107   -1.6853   -3.4358 C.ar      1 <0>         0.0783
      6 C6          0.0312   -2.9935   -2.9582 C.ar      1 <0>        -0.1164
      7 C7          0.0407   -3.2464   -1.6044 C.ar      1 <0>        -0.1167
      8 C8          0.0298   -2.1908   -0.6991 C.ar      1 <0>         0.1006
      9 N1          0.0350   -2.1304    0.6795 N.pl3     1 <0>        -0.4776
     10 C9          0.0234   -0.8169    1.0876 C.2       1 <0>         0.1133
     11 C10         0.0303   -0.3610    2.4942 C.ar      1 <0>        -0.0367
     12 C11        -0.8022   -0.9735    3.4324 C.ar      1 <0>        -0.0957
     13 C12        -0.7930   -0.5455    4.7428 C.ar      1 <0>        -0.1425
     14 C13         0.0430    0.4934    5.1299 C.ar      1 <0>         0.1139
     15 C14         0.8723    1.1056    4.1995 C.ar      1 <0>        -0.1401
     16 C15         0.8734    0.6793    2.8885 C.ar      1 <0>        -0.0767
     17 O1          0.0492    0.9124    6.4224 O.3       1 <0>        -0.4960
     18 C16         0.0553   -3.2906    1.5738 C.3       1 <0>         0.1031
     19 C17         1.5047   -3.6737    1.8793 C.3       1 <0>        -0.1366
     20 C18         1.5259   -4.8854    2.8133 C.3       1 <0>        -0.1170
     21 C19         2.9753   -5.2685    3.1188 C.3       1 <0>        -0.1163
     22 C20         2.9965   -6.4802    4.0528 C.3       1 <0>        -0.1475
     23 C21         4.4459   -6.8633    4.3583 C.3       1 <0>        -0.0061
     24 N2          4.4663   -8.0267    5.2550 N.4       1 <0>        -0.3952
     25 C22         3.9724   -9.2321    4.5414 C.3       1 <0>        -0.0070
     26 C23         4.5672  -10.4010    5.3663 C.3       1 <0>        -0.1462
     27 C24         5.9639   -9.8693    5.7619 C.3       1 <0>        -0.1457
     28 C25         5.8556   -8.3368    5.6566 C.3       1 <0>        -0.0088
     29 O2          0.0011   -1.4537   -4.7757 O.3       1 <0>        -0.4962
     30 H1          1.0042    1.8801    0.0026 H         1 <0>         0.0668
     31 H2         -0.5455    1.8639   -0.8728 H         1 <0>         0.0682
     32 H3         -0.5286    1.8543    0.9071 H         1 <0>         0.0665
     33 H4         -0.0167    0.3908   -2.9262 H         1 <0>         0.1309
     34 H5          0.0394   -3.8175   -3.6563 H         1 <0>         0.1326
     35 H6          0.0563   -4.2650   -1.2457 H         1 <0>         0.1208
     36 H7         -1.4530   -1.7814    3.1320 H         1 <0>         0.1266
     37 H8         -1.4371   -1.0187    5.4692 H         1 <0>         0.1325
     38 H9          1.5208    1.9136    4.5043 H         1 <0>         0.1357
     39 H10         1.5224    1.1524    2.1665 H         1 <0>         0.1344
     40 H11         0.6888    0.4513    6.9822 H         1 <0>         0.3920
     41 H12        -0.4584   -3.0424    2.5026 H         1 <0>         0.0932
     42 H13        -0.4485   -4.1290    1.0928 H         1 <0>         0.0873
     43 H14         2.0184   -3.9219    0.9505 H         1 <0>         0.0716
     44 H15         2.0085   -2.8353    2.3604 H         1 <0>         0.0719
     45 H16         1.0122   -4.6372    3.7421 H         1 <0>         0.0696
     46 H17         1.0222   -5.7238    2.3323 H         1 <0>         0.0696
     47 H18         3.4890   -5.5167    2.1900 H         1 <0>         0.0746
     48 H19         3.4791   -4.4301    3.5998 H         1 <0>         0.0745
     49 H20         2.4829   -6.2320    4.9816 H         1 <0>         0.0863
     50 H21         2.4928   -7.3186    3.5717 H         1 <0>         0.0864
     51 H22         4.9596   -7.1115    3.4295 H         1 <0>         0.1288
     52 H23         4.9497   -6.0249    4.8393 H         1 <0>         0.1291
     53 H24         2.8830   -9.2674    4.5543 H         1 <0>         0.1345
     54 H25         4.3469   -9.2538    3.5180 H         1 <0>         0.1333
     55 H26         3.9629  -10.5943    6.2526 H         1 <0>         0.0980
     56 H27         4.6552  -11.2990    4.7548 H         1 <0>         0.1166
     57 H28         6.2048  -10.1623    6.7838 H         1 <0>         0.1052
     58 H29         6.7204  -10.2434    5.0720 H         1 <0>         0.1037
     59 H30         6.5512   -7.9662    4.9037 H         1 <0>         0.1301
     60 H31         6.0731   -7.8819    6.6229 H         1 <0>         0.1317
     61 H32         0.8816   -1.3740   -5.1674 H         1 <0>         0.3882
     62 H33         3.9001   -7.8477    6.0707 H         1 <0>         0.4263
@<TRIPOS>BOND
     1    1    2 1
     2    1   30 1
     3    1   31 1
     4    1   32 1
     5    2   10 2
     6    2    3 1
     7    3    8 ar
     8    3    4 ar
     9    4    5 ar
    10    4   33 1
    11    5    6 ar
    12    5   29 1
    13    6    7 ar
    14    6   34 1
    15    7    8 ar
    16    7   35 1
    17    8    9 1
    18    9   10 1
    19    9   18 1
    20   10   11 1
    21   11   16 ar
    22   11   12 ar
    23   12   13 ar
    24   12   36 1
    25   13   14 ar
    26   13   37 1
    27   14   15 ar
    28   14   17 1
    29   15   16 ar
    30   15   38 1
    31   16   39 1
    32   17   40 1
    33   18   19 1
    34   18   41 1
    35   18   42 1
    36   19   20 1
    37   19   43 1
    38   19   44 1
    39   20   21 1
    40   20   45 1
    41   20   46 1
    42   21   22 1
    43   21   47 1
    44   21   48 1
    45   22   23 1
    46   22   49 1
    47   22   50 1
    48   23   24 1
    49   23   51 1
    50   23   52 1
    51   24   28 1
    52   24   25 1
    53   24   62 1
    54   25   26 1
    55   25   53 1
    56   25   54 1
    57   26   27 1
    58   26   55 1
    59   26   56 1
    60   27   28 1
    61   27   57 1
    62   27   58 1
    63   28   59 1
    64   28   60 1
    65   29   61 1
