@<TRIPOS>MOLECULE
CHEMBL328475
   71    76     0     0     0
SMALL
USER_CHARGES

@<TRIPOS>ATOM
      1 C1          9.9362  -10.1785   -0.5738 C.ar      1 <0>        -0.0940
      2 C2          8.5742  -10.4579   -0.4757 C.ar      1 <0>        -0.1164
      3 C3          7.6554   -9.4554   -0.4207 C.ar      1 <0>        -0.0974
      4 C4          8.0829   -8.1173   -0.4628 C.ar      1 <0>        -0.0786
      5 C5          7.1640   -7.0554   -0.4079 C.ar      1 <0>         0.0116
      6 C6          7.6148   -5.7720   -0.4507 C.ar      1 <0>        -0.6708
      7 C7          8.9767   -5.4926   -0.5485 C.ar      1 <0>        -0.0494
      8 C8          9.8954   -6.4952   -0.6039 C.ar      1 <0>        -0.1104
      9 C9          9.4678   -7.8333   -0.5622 C.ar      1 <0>        -0.0127
     10 C10        10.3868   -8.8951   -0.6171 C.ar      1 <0>        -0.1141
     11 S1          6.4592   -4.4437   -0.3821 S.o2      1 <0>         2.6832
     12 O1          7.0411   -3.3619   -1.0966 O.2       1 <0>        -0.9504
     13 O2          5.1925   -4.9892   -0.7246 O.2       1 <0>        -0.9364
     14 N1          6.3564   -3.9653    1.1999 N.pl3     1 <0>        -0.9923
     15 C11         7.3030   -2.9913    1.7683 C.3       1 <0>         0.1202
     16 C12         6.5137   -1.7431    2.1600 C.3       1 <0>        -0.1003
     17 C13         5.2771   -2.1124    2.9364 C.ar      1 <0>        -0.0438
     18 C14         4.6912   -1.1261    3.7194 C.ar      1 <0>        -0.1466
     19 C15         3.5472   -1.3955    4.4502 C.ar      1 <0>         0.1176
     20 C16         2.9807   -2.6612    4.3991 C.ar      1 <0>        -0.1459
     21 C17         3.5661   -3.6398    3.6245 C.ar      1 <0>        -0.0862
     22 C18         4.7172   -3.3699    2.8958 C.ar      1 <0>        -0.1037
     23 C19         5.3150   -4.4903    2.0894 C.3       1 <0>         0.2435
     24 C20         4.2361   -5.1455    1.2662 C.ar      1 <0>        -0.1016
     25 C21         3.2719   -4.3701    0.6491 C.ar      1 <0>        -0.0237
     26 C22         2.2816   -4.9683   -0.1056 C.ar      1 <0>        -0.1279
     27 C23         2.2552   -6.3484   -0.2445 C.ar      1 <0>         0.1244
     28 C24         3.2240   -7.1243    0.3754 C.ar      1 <0>        -0.1944
     29 C25         4.2153   -6.5208    1.1248 C.ar      1 <0>        -0.0657
     30 O3          1.2817   -6.9394   -0.9861 O.3       1 <0>        -0.3303
     31 C26         1.3168   -8.3645   -1.0853 C.3       1 <0>         0.0275
     32 C27         0.1515   -8.8442   -1.9531 C.3       1 <0>         0.0035
     33 N2          0.3299   -8.3545   -3.3265 N.4       1 <0>        -0.3957
     34 C28         1.4885   -9.0301   -3.9648 C.3       1 <0>        -0.0107
     35 C29         1.2067   -8.8623   -5.4790 C.3       1 <0>        -0.1450
     36 C30        -0.3282   -9.0256   -5.5652 C.3       1 <0>        -0.1448
     37 C31        -0.8466   -8.7071   -4.1505 C.3       1 <0>        -0.0086
     38 O4          2.9814   -0.4249    5.2149 O.3       1 <0>        -0.4978
     39 H1         10.6448  -10.9927   -0.6115 H         1 <0>         0.1313
     40 H2          8.2430  -11.4854   -0.4431 H         1 <0>         0.1292
     41 H3          6.6032   -9.6870   -0.3456 H         1 <0>         0.1282
     42 H4          6.1056   -7.2568   -0.3324 H         1 <0>         0.1434
     43 H5          9.3080   -4.4652   -0.5811 H         1 <0>         0.1369
     44 H6         10.9476   -6.2637   -0.6799 H         1 <0>         0.1390
     45 H7         11.4451   -8.6937   -0.6928 H         1 <0>         0.1354
     46 H8          7.7837   -3.4154    2.6498 H         1 <0>         0.0841
     47 H9          8.0569   -2.7327    1.0248 H         1 <0>         0.0992
     48 H10         7.1433   -1.0988    2.7737 H         1 <0>         0.0953
     49 H11         6.2232   -1.2049    1.2578 H         1 <0>         0.0887
     50 H12         5.1317   -0.1408    3.7579 H         1 <0>         0.1322
     51 H13         2.0856   -2.8784    4.9631 H         1 <0>         0.1317
     52 H14         3.1257   -4.6251    3.5839 H         1 <0>         0.1277
     53 H15         5.7519   -5.2257    2.7649 H         1 <0>         0.0971
     54 H16         3.2929   -3.2957    0.7575 H         1 <0>         0.1260
     55 H17         1.5283   -4.3622   -0.5869 H         1 <0>         0.1272
     56 H18         3.2056   -8.1988    0.2688 H         1 <0>         0.1225
     57 H19         4.9722   -7.1240    1.6038 H         1 <0>         0.1242
     58 H20         2.2586   -8.6741   -1.5382 H         1 <0>         0.0842
     59 H21         1.2318   -8.8003   -0.0898 H         1 <0>         0.1069
     60 H22         0.1255   -9.9338   -1.9564 H         1 <0>         0.1470
     61 H23        -0.7849   -8.4595   -1.5489 H         1 <0>         0.1407
     62 H24         2.4208   -8.5368   -3.6900 H         1 <0>         0.1342
     63 H25         1.5159  -10.0854   -3.6932 H         1 <0>         0.1342
     64 H26         1.5090   -7.8722   -5.8202 H         1 <0>         0.0986
     65 H27         1.7101   -9.6398   -6.0536 H         1 <0>         0.1168
     66 H28        -0.7435   -8.3227   -6.2874 H         1 <0>         0.1054
     67 H29        -0.5850  -10.0484   -5.8408 H         1 <0>         0.1040
     68 H30        -1.3445   -9.5817   -3.7319 H         1 <0>         0.1310
     69 H31        -1.5385   -7.8657   -4.1893 H         1 <0>         0.1327
     70 H32         2.3204    0.1065    4.7503 H         1 <0>         0.3941
     71 H33         0.4665   -7.3548   -3.3249 H         1 <0>         0.4345
@<TRIPOS>BOND
     1    1   10 ar
     2    1    2 ar
     3    1   39 1
     4    2    3 ar
     5    2   40 1
     6    3    4 ar
     7    3   41 1
     8    4    9 ar
     9    4    5 ar
    10    5    6 ar
    11    5   42 1
    12    6    7 ar
    13    6   11 1
    14    7    8 ar
    15    7   43 1
    16    8    9 ar
    17    8   44 1
    18    9   10 ar
    19   10   45 1
    20   11   12 2
    21   11   13 2
    22   11   14 1
    23   14   23 1
    24   14   15 1
    25   15   16 1
    26   15   46 1
    27   15   47 1
    28   16   17 1
    29   16   48 1
    30   16   49 1
    31   17   22 ar
    32   17   18 ar
    33   18   19 ar
    34   18   50 1
    35   19   20 ar
    36   19   38 1
    37   20   21 ar
    38   20   51 1
    39   21   22 ar
    40   21   52 1
    41   22   23 1
    42   23   24 1
    43   23   53 1
    44   24   29 ar
    45   24   25 ar
    46   25   26 ar
    47   25   54 1
    48   26   27 ar
    49   26   55 1
    50   27   28 ar
    51   27   30 1
    52   28   29 ar
    53   28   56 1
    54   29   57 1
    55   30   31 1
    56   31   32 1
    57   31   58 1
    58   31   59 1
    59   32   33 1
    60   32   60 1
    61   32   61 1
    62   33   37 1
    63   33   34 1
    64   33   71 1
    65   34   35 1
    66   34   62 1
    67   34   63 1
    68   35   36 1
    69   35   64 1
    70   35   65 1
    71   36   37 1
    72   36   66 1
    73   36   67 1
    74   37   68 1
    75   37   69 1
    76   38   70 1
