@<TRIPOS>MOLECULE
CHEMBL214972
   51    55     0     0     0
SMALL
USER_CHARGES

@<TRIPOS>ATOM
      1 C1         -0.0167    1.3781    0.0096 C.ar      1 <0>        -0.1209
      2 C2          1.1709    2.0855    0.0021 C.ar      1 <0>        -0.1162
      3 C3          2.3773    1.4107   -0.0130 C.ar      1 <0>        -0.1167
      4 C4          2.3960    0.0285   -0.0201 C.ar      1 <0>        -0.0785
      5 C5          1.2084   -0.6789   -0.0117 C.ar      1 <0>        -0.1165
      6 C6          0.0021   -0.0041    0.0020 C.ar      1 <0>        -0.1159
      7 C7          3.7112   -0.7071   -0.0376 C.3       1 <0>        -0.0627
      8 C8          4.1714   -0.9633    1.3989 C.3       1 <0>        -0.0295
      9 C9          3.1503   -1.8014    2.1703 C.3       1 <0>        -0.1081
     10 C10         3.0285   -3.1714    1.4957 C.3       1 <0>        -0.1658
     11 C11         4.3691   -3.8556    1.4487 C.2       1 <0>         0.3952
     12 O1          4.4273   -5.0681    1.4300 O.2       1 <0>        -0.4479
     13 C12         5.6041   -3.0666    1.4260 C.2       1 <0>        -0.1498
     14 C13         5.5005   -1.7067    1.4361 C.2       1 <0>         0.0234
     15 C14         6.5359   -0.6944    1.5239 C.ar      1 <0>        -0.0999
     16 C15         7.9059   -0.7820    1.2182 C.ar      1 <0>        -0.0621
     17 C16         8.6686    0.3373    1.4353 C.ar      1 <0>        -0.1576
     18 C17         8.1237    1.5114    1.9357 C.ar      1 <0>         0.1298
     19 C18         6.7621    1.6232    2.2299 C.ar      1 <0>        -0.1368
     20 C19         5.9778    0.5129    2.0027 C.ar      1 <0>        -0.0509
     21 C20         4.4886    0.3544    2.1328 C.3       1 <0>        -0.0832
     22 O2          8.9345    2.5795    2.1446 O.3       1 <0>        -0.4992
     23 C21         6.9295   -3.7287    1.3925 C.ar      1 <0>        -0.0386
     24 C22         7.7605   -3.5733    0.2832 C.ar      1 <0>        -0.0934
     25 C23         8.9932   -4.1907    0.2552 C.ar      1 <0>        -0.1470
     26 C24         9.4073   -4.9664    1.3297 C.ar      1 <0>         0.1101
     27 C25         8.5826   -5.1232    2.4356 C.ar      1 <0>        -0.1417
     28 C26         7.3511   -4.5039    2.4725 C.ar      1 <0>        -0.0755
     29 O3         10.6225   -5.5739    1.2987 O.3       1 <0>        -0.4986
     30 H1         -0.9591    1.9053    0.0259 H         1 <0>         0.1214
     31 H2          1.1563    3.1654    0.0076 H         1 <0>         0.1220
     32 H3          3.3051    1.9634   -0.0196 H         1 <0>         0.1217
     33 H4          1.2231   -1.7588   -0.0176 H         1 <0>         0.1221
     34 H5         -0.9258   -0.5567    0.0082 H         1 <0>         0.1226
     35 H6          3.5884   -1.6586   -0.5549 H         1 <0>         0.0807
     36 H7          4.4573   -0.1052   -0.5563 H         1 <0>         0.0812
     37 H8          3.4852   -1.9292    3.1996 H         1 <0>         0.0766
     38 H9          2.1822   -1.3005    2.1580 H         1 <0>         0.0893
     39 H10         2.3282   -3.7890    2.0581 H         1 <0>         0.1014
     40 H11         2.6545   -3.0412    0.4802 H         1 <0>         0.1043
     41 H12         8.3390   -1.6918    0.8295 H         1 <0>         0.1458
     42 H13         9.7244    0.3038    1.2105 H         1 <0>         0.1300
     43 H14         6.3429    2.5393    2.6189 H         1 <0>         0.1405
     44 H15         3.9746    1.1886    1.6553 H         1 <0>         0.0973
     45 H16         4.2044    0.2826    3.1826 H         1 <0>         0.0936
     46 H17         9.0141    3.1680    1.3814 H         1 <0>         0.3945
     47 H18         7.4388   -2.9704   -0.5531 H         1 <0>         0.1286
     48 H19         9.6370   -4.0711   -0.6036 H         1 <0>         0.1325
     49 H20         8.9077   -5.7275    3.2695 H         1 <0>         0.1315
     50 H21         6.7121   -4.6223    3.3351 H         1 <0>         0.1255
     51 H22        11.3398   -5.0374    1.6631 H         1 <0>         0.3916
@<TRIPOS>BOND
     1    1    6 ar
     2    1    2 ar
     3    1   30 1
     4    2    3 ar
     5    2   31 1
     6    3    4 ar
     7    3   32 1
     8    4    5 ar
     9    4    7 1
    10    5    6 ar
    11    5   33 1
    12    6   34 1
    13    7    8 1
    14    7   35 1
    15    7   36 1
    16    8   14 1
    17    8   21 1
    18    8    9 1
    19    9   10 1
    20    9   37 1
    21    9   38 1
    22   10   11 1
    23   10   39 1
    24   10   40 1
    25   11   12 2
    26   11   13 1
    27   13   14 2
    28   13   23 1
    29   14   15 1
    30   15   20 ar
    31   15   16 ar
    32   16   17 ar
    33   16   41 1
    34   17   18 ar
    35   17   42 1
    36   18   19 ar
    37   18   22 1
    38   19   20 ar
    39   19   43 1
    40   20   21 1
    41   21   44 1
    42   21   45 1
    43   22   46 1
    44   23   28 ar
    45   23   24 ar
    46   24   25 ar
    47   24   47 1
    48   25   26 ar
    49   25   48 1
    50   26   27 ar
    51   26   29 1
    52   27   28 ar
    53   27   49 1
    54   28   50 1
    55   29   51 1
