@<TRIPOS>MOLECULE
CHEMBL238959
   82    86     0     0     0
SMALL
USER_CHARGES

@<TRIPOS>ATOM
      1 C1         -0.0187    1.5258    0.0104 C.3       1 <0>        -0.1650
      2 C2          0.0021   -0.0041    0.0020 C.3       1 <0>         0.1421
      3 H1          0.5123   -0.3556   -0.8948 H         1 <0>         0.0895
      4 C3         -1.4333   -0.5336    0.0129 C.3       1 <0>        -0.1223
      5 C4         -1.4157   -2.0577   -0.1212 C.3       1 <0>        -0.0782
      6 C5         -2.8295   -2.5793   -0.1105 C.ar      1 <0>        -0.0933
      7 C6         -3.4314   -2.9172    1.0875 C.ar      1 <0>        -0.1008
      8 C7         -4.7271   -3.3960    1.1000 C.ar      1 <0>        -0.1428
      9 C8         -5.4247   -3.5373   -0.0909 C.ar      1 <0>         0.1018
     10 C9         -4.8186   -3.1971   -1.2916 C.ar      1 <0>        -0.1422
     11 C10        -3.5245   -2.7138   -1.2982 C.ar      1 <0>        -0.1004
     12 O1         -6.6993   -4.0085   -0.0813 O.3       1 <0>        -0.5002
     13 N1          0.7106   -0.4894    1.1889 N.am      1 <0>        -0.7280
     14 C11         2.0538   -0.5998    1.1737 C.2       1 <0>         0.5135
     15 O2          2.6758   -0.2974    0.1774 O.2       1 <0>        -0.5260
     16 C12         2.7826   -1.0990    2.3946 C.3       1 <0>        -0.0710
     17 C13         4.2638   -1.1281    2.1185 C.2       1 <0>        -0.1346
     18 C14         5.0227   -2.2454    1.5591 C.ar      1 <0>        -0.0521
     19 C15         4.6782   -3.5332    1.1335 C.ar      1 <0>        -0.0934
     20 C16         5.6417   -4.3684    0.6447 C.ar      1 <0>        -0.1085
     21 C17         6.9637   -3.9518    0.5657 C.ar      1 <0>        -0.1918
     22 C18         7.3285   -2.6847    0.9801 C.ar      1 <0>         0.1142
     23 C19         6.3592   -1.8152    1.4820 C.ar      1 <0>         0.0862
     24 N2          6.4060   -0.5237    1.9628 N.pl3     1 <0>        -0.5778
     25 H2          7.2068    0.0202    2.0244 H         1 <0>         0.4174
     26 C20         5.1453   -0.1207    2.3362 C.2       1 <0>         0.1486
     27 C21         4.8037    1.2066    2.8922 C.ar      1 <0>        -0.0443
     28 C22         3.6792    1.8916    2.4300 C.ar      1 <0>        -0.0921
     29 C23         3.3657    3.1291    2.9532 C.ar      1 <0>        -0.1159
     30 C24         4.1637    3.6913    3.9336 C.ar      1 <0>        -0.1058
     31 C25         5.2802    3.0176    4.3958 C.ar      1 <0>        -0.1179
     32 C26         5.6012    1.7766    3.8854 C.ar      1 <0>        -0.1054
     33 O3          8.6262   -2.2872    0.8992 O.3       1 <0>        -0.3211
     34 C27         9.5624   -3.2310    0.3751 C.3       1 <0>         0.0660
     35 C28        10.9602   -2.6091    0.3613 C.3       1 <0>        -0.1507
     36 C29        11.9625   -3.6196   -0.1999 C.3       1 <0>        -0.0059
     37 N3         13.3046   -3.0224   -0.2132 N.4       1 <0>        -0.3814
     38 C30        13.3239   -1.8866   -1.1426 C.3       1 <0>        -0.0139
     39 C31        14.6962   -1.2109   -1.0999 C.3       1 <0>        -0.1458
     40 C32        15.7706   -2.2236   -1.5065 C.3       1 <0>        -0.1399
     41 C33        15.6922   -3.4375   -0.5762 C.3       1 <0>        -0.1463
     42 C34        14.2830   -4.0307   -0.6384 C.3       1 <0>        -0.0067
     43 H3          1.0039    1.9031    0.0027 H         1 <0>         0.0599
     44 H4         -0.5459    1.8868   -0.8726 H         1 <0>         0.0668
     45 H5         -0.5289    1.8773    0.9072 H         1 <0>         0.0582
     46 H6         -1.9156   -0.2570    0.9504 H         1 <0>         0.0719
     47 H7         -1.9862   -0.1019   -0.8214 H         1 <0>         0.0819
     48 H8         -0.9334   -2.3344   -1.0587 H         1 <0>         0.0738
     49 H9         -0.8628   -2.4894    0.7131 H         1 <0>         0.0733
     50 H10        -2.8879   -2.8071    2.0143 H         1 <0>         0.1253
     51 H11        -5.1966   -3.6605    2.0359 H         1 <0>         0.1287
     52 H12        -5.3596   -3.3061   -2.2200 H         1 <0>         0.1289
     53 H13        -3.0538   -2.4447   -2.2322 H         1 <0>         0.1261
     54 H14        -7.3727   -3.3195    0.0019 H         1 <0>         0.3921
     55 H15         0.2131   -0.7312    1.9857 H         1 <0>         0.4001
     56 H16         2.5826   -0.4337    3.2345 H         1 <0>         0.1025
     57 H17         2.4385   -2.1044    2.6374 H         1 <0>         0.1038
     58 H18         3.6525   -3.8661    1.1920 H         1 <0>         0.1251
     59 H19         5.3731   -5.3618    0.3170 H         1 <0>         0.1279
     60 H20         7.7142   -4.6242    0.1770 H         1 <0>         0.1270
     61 H21         3.0559    1.4540    1.6642 H         1 <0>         0.1319
     62 H22         2.4957    3.6603    2.5963 H         1 <0>         0.1284
     63 H23         3.9142    4.6605    4.3396 H         1 <0>         0.1276
     64 H24         5.8995    3.4621    5.1608 H         1 <0>         0.1276
     65 H25         6.4702    1.2495    4.2504 H         1 <0>         0.1206
     66 H26         9.5679   -4.1233    1.0012 H         1 <0>         0.0731
     67 H27         9.2751   -3.5019   -0.6409 H         1 <0>         0.0728
     68 H28        10.9547   -1.7168   -0.2648 H         1 <0>         0.0978
     69 H29        11.2474   -2.3382    1.3773 H         1 <0>         0.0977
     70 H30        11.9681   -4.5119    0.4262 H         1 <0>         0.1356
     71 H31        11.6753   -3.8904   -1.2159 H         1 <0>         0.1338
     72 H32        13.1257   -2.2418   -2.1539 H         1 <0>         0.1297
     73 H33        12.5566   -1.1683   -0.8539 H         1 <0>         0.1315
     74 H34        14.7091   -0.3689   -1.7920 H         1 <0>         0.1124
     75 H35        14.8954   -0.8551   -0.0890 H         1 <0>         0.0876
     76 H36        15.6013   -2.5413   -2.5353 H         1 <0>         0.0821
     77 H37        16.7553   -1.7636   -1.4232 H         1 <0>         0.0946
     78 H38        16.4169   -4.1871   -0.8940 H         1 <0>         0.1130
     79 H39        15.9120   -3.1279    0.4455 H         1 <0>         0.0878
     80 H40        14.2237   -4.8953    0.0227 H         1 <0>         0.1310
     81 H41        14.0643   -4.3402   -1.6604 H         1 <0>         0.1292
     82 H42        13.5372   -2.6996    0.7141 H         1 <0>         0.4233
@<TRIPOS>BOND
     1    1    2 1
     2    1   43 1
     3    1   44 1
     4    1   45 1
     5    2    3 1
     6    2    4 1
     7    2   13 1
     8    4    5 1
     9    4   46 1
    10    4   47 1
    11    5    6 1
    12    5   48 1
    13    5   49 1
    14    6   11 ar
    15    6    7 ar
    16    7    8 ar
    17    7   50 1
    18    8    9 ar
    19    8   51 1
    20    9   10 ar
    21    9   12 1
    22   10   11 ar
    23   10   52 1
    24   11   53 1
    25   12   54 1
    26   13   14 am
    27   13   55 1
    28   14   15 2
    29   14   16 1
    30   16   17 1
    31   16   56 1
    32   16   57 1
    33   17   26 2
    34   17   18 1
    35   18   23 ar
    36   18   19 ar
    37   19   20 ar
    38   19   58 1
    39   20   21 ar
    40   20   59 1
    41   21   22 ar
    42   21   60 1
    43   22   23 ar
    44   22   33 1
    45   23   24 1
    46   24   25 1
    47   24   26 1
    48   26   27 1
    49   27   32 ar
    50   27   28 ar
    51   28   29 ar
    52   28   61 1
    53   29   30 ar
    54   29   62 1
    55   30   31 ar
    56   30   63 1
    57   31   32 ar
    58   31   64 1
    59   32   65 1
    60   33   34 1
    61   34   35 1
    62   34   66 1
    63   34   67 1
    64   35   36 1
    65   35   68 1
    66   35   69 1
    67   36   37 1
    68   36   70 1
    69   36   71 1
    70   37   42 1
    71   37   38 1
    72   37   82 1
    73   38   39 1
    74   38   72 1
    75   38   73 1
    76   39   40 1
    77   39   74 1
    78   39   75 1
    79   40   41 1
    80   40   76 1
    81   40   77 1
    82   41   42 1
    83   41   78 1
    84   41   79 1
    85   42   80 1
    86   42   81 1
