@<TRIPOS>MOLECULE
CHEMBL539849
   66    70     0     0     0
SMALL
USER_CHARGES

@<TRIPOS>ATOM
      1 C1          0.0664    1.0642   -0.9945 C.ar      1 <0>        -0.0685
      2 C2          1.0634    1.8504   -1.5388 C.ar      1 <0>        -0.1381
      3 C3          2.2928    1.2899   -1.8538 C.ar      1 <0>         0.1094
      4 C4          2.5176   -0.0592   -1.6211 C.ar      1 <0>        -0.1987
      5 C5          1.5173   -0.8410   -1.0766 C.ar      1 <0>        -0.0743
      6 C6          0.2929   -0.2801   -0.7636 C.ar      1 <0>        -0.0893
      7 C7         -0.7964   -1.1352   -0.1692 C.3       1 <0>        -0.0565
      8 C8         -1.6372   -1.7184   -1.2756 C.ar      1 <0>        -0.0512
      9 C9         -1.2989   -2.9564   -1.8433 C.ar      1 <0>        -0.0492
     10 C10        -0.1762   -3.6773   -1.3973 C.ar      1 <0>        -0.0960
     11 C11         0.1263   -4.8746   -1.9664 C.ar      1 <0>        -0.1353
     12 C12        -0.6642   -5.4025   -2.9920 C.ar      1 <0>         0.1123
     13 C13        -1.7610   -4.7288   -3.4494 C.ar      1 <0>        -0.1328
     14 C14        -2.1020   -3.4898   -2.8832 C.ar      1 <0>        -0.0323
     15 C15        -3.2260   -2.7723   -3.3318 C.ar      1 <0>        -0.1033
     16 C16        -3.5363   -1.5760   -2.7692 C.ar      1 <0>        -0.0957
     17 C17        -2.7509   -1.0407   -1.7352 C.ar      1 <0>        -0.0394
     18 C18        -3.1164    0.2654   -1.1350 C.ar      1 <0>        -0.0540
     19 C19        -3.3395    0.3655    0.2374 C.ar      1 <0>        -0.0931
     20 C20        -3.6787    1.5814    0.7925 C.ar      1 <0>        -0.1421
     21 C21        -3.7982    2.7052   -0.0140 C.ar      1 <0>         0.1096
     22 C22        -3.5767    2.6087   -1.3811 C.ar      1 <0>        -0.1433
     23 C23        -3.2320    1.3967   -1.9414 C.ar      1 <0>        -0.0894
     24 O1         -4.1330    3.9018    0.5359 O.3       1 <0>        -0.4970
     25 O2         -0.3367   -6.6014   -3.5414 O.3       1 <0>        -0.5001
     26 O3          3.2751    2.0611   -2.3898 O.3       1 <0>        -0.3291
     27 C24         4.5150    1.4169   -2.6891 C.3       1 <0>         0.0260
     28 C25         5.4900    2.4369   -3.2805 C.3       1 <0>        -0.0009
     29 N1          5.7816    3.4726   -2.2804 N.4       1 <0>        -0.3838
     30 C26         6.5929    4.5300   -2.8953 C.3       1 <0>        -0.0072
     31 C27         6.8314    5.6504   -1.8807 C.3       1 <0>        -0.1466
     32 C28         7.5679    5.0819   -0.6644 C.3       1 <0>        -0.1390
     33 C29         6.7476    3.9305   -0.0755 C.3       1 <0>        -0.1452
     34 C30         6.5123    2.8739   -1.1569 C.3       1 <0>        -0.0131
     35 H1         -0.8893    1.5010   -0.7449 H         1 <0>         0.1345
     36 H2          0.8859    2.9003   -1.7194 H         1 <0>         0.1312
     37 H3          3.4736   -0.4979   -1.8658 H         1 <0>         0.1265
     38 H4          1.6917   -1.8913   -0.8953 H         1 <0>         0.1295
     39 H5         -0.3490   -1.9422    0.4110 H         1 <0>         0.0875
     40 H6         -1.4236   -0.5249    0.4806 H         1 <0>         0.0981
     41 H7          0.4431   -3.2811   -0.6062 H         1 <0>         0.1308
     42 H8          0.9892   -5.4252   -1.6218 H         1 <0>         0.1307
     43 H9         -2.3629   -5.1470   -4.2426 H         1 <0>         0.1360
     44 H10        -3.8417   -3.1728   -4.1236 H         1 <0>         0.1325
     45 H11        -4.4005   -1.0307   -3.1190 H         1 <0>         0.1288
     46 H12        -3.2470   -0.5084    0.8652 H         1 <0>         0.1317
     47 H13        -3.8520    1.6595    1.8557 H         1 <0>         0.1332
     48 H14        -3.6707    3.4846   -2.0060 H         1 <0>         0.1316
     49 H15        -3.0558    1.3231   -3.0044 H         1 <0>         0.1284
     50 H16        -3.3746    4.4296    0.8211 H         1 <0>         0.3914
     51 H17        -0.7441   -7.3601   -3.1014 H         1 <0>         0.3951
     52 H18         4.9370    0.9985   -1.7753 H         1 <0>         0.0858
     53 H19         4.3443    0.6172   -3.4099 H         1 <0>         0.1086
     54 H20         6.4149    1.9341   -3.5631 H         1 <0>         0.1487
     55 H21         5.0434    2.8981   -4.1615 H         1 <0>         0.1423
     56 H22         7.5507    4.1157   -3.2102 H         1 <0>         0.1291
     57 H23         6.0689    4.9314   -3.7627 H         1 <0>         0.1309
     58 H24         7.4354    6.4336   -2.3387 H         1 <0>         0.1130
     59 H25         5.8742    6.0656   -1.5654 H         1 <0>         0.0879
     60 H26         8.5466    4.7127   -0.9707 H         1 <0>         0.0821
     61 H27         7.6901    5.8633    0.0857 H         1 <0>         0.0947
     62 H28         7.2918    3.4844    0.7569 H         1 <0>         0.1122
     63 H29         5.7887    4.3100    0.2774 H         1 <0>         0.0877
     64 H30         5.9287    2.0526   -0.7410 H         1 <0>         0.1273
     65 H31         7.4718    2.4949   -1.5089 H         1 <0>         0.1301
     66 H32         4.9160    3.8678   -1.9448 H         1 <0>         0.4293
@<TRIPOS>BOND
     1    1    6 ar
     2    1    2 ar
     3    1   35 1
     4    2    3 ar
     5    2   36 1
     6    3    4 ar
     7    3   26 1
     8    4    5 ar
     9    4   37 1
    10    5    6 ar
    11    5   38 1
    12    6    7 1
    13    7    8 1
    14    7   39 1
    15    7   40 1
    16    8   17 ar
    17    8    9 ar
    18    9   14 ar
    19    9   10 ar
    20   10   11 ar
    21   10   41 1
    22   11   12 ar
    23   11   42 1
    24   12   13 ar
    25   12   25 1
    26   13   14 ar
    27   13   43 1
    28   14   15 ar
    29   15   16 ar
    30   15   44 1
    31   16   17 ar
    32   16   45 1
    33   17   18 1
    34   18   23 ar
    35   18   19 ar
    36   19   20 ar
    37   19   46 1
    38   20   21 ar
    39   20   47 1
    40   21   22 ar
    41   21   24 1
    42   22   23 ar
    43   22   48 1
    44   23   49 1
    45   24   50 1
    46   25   51 1
    47   26   27 1
    48   27   28 1
    49   27   52 1
    50   27   53 1
    51   28   29 1
    52   28   54 1
    53   28   55 1
    54   29   34 1
    55   29   30 1
    56   29   66 1
    57   30   31 1
    58   30   56 1
    59   30   57 1
    60   31   32 1
    61   31   58 1
    62   31   59 1
    63   32   33 1
    64   32   60 1
    65   32   61 1
    66   33   34 1
    67   33   62 1
    68   33   63 1
    69   34   64 1
    70   34   65 1
