@<TRIPOS>MOLECULE
CHEMBL184074
   79    81     0     0     0
SMALL
USER_CHARGES

@<TRIPOS>ATOM
      1 C1          2.9319    4.4875    3.2203 C.3       1 <0>        -0.1540
      2 C2          2.6599    3.0055    2.9545 C.3       1 <0>        -0.1299
      3 C3          3.3114    2.1625    4.0526 C.3       1 <0>        -0.1128
      4 C4          3.0395    0.6805    3.7869 C.3       1 <0>        -0.1141
      5 C5          3.6909   -0.1625    4.8850 C.3       1 <0>        -0.6114
      6 S1          3.3685   -1.9196    4.5700 S.o2      1 <0>         2.4104
      7 O1          1.9715   -2.1492    4.6921 O.2       1 <0>        -0.9363
      8 O2          4.0268   -2.2885    3.3659 O.2       1 <0>        -0.9364
      9 C6          4.2075   -2.7357    5.9558 C.3       1 <0>        -0.6117
     10 C7          4.0294   -4.2508    5.8389 C.3       1 <0>        -0.1135
     11 C8          4.7370   -4.9392    7.0078 C.3       1 <0>        -0.1122
     12 C9          4.5589   -6.4543    6.8909 C.3       1 <0>        -0.1247
     13 C10         5.2665   -7.1427    8.0598 C.3       1 <0>        -0.1201
     14 C11         5.0884   -8.6578    7.9429 C.3       1 <0>        -0.1204
     15 C12         5.7960   -9.3462    9.1118 C.3       1 <0>        -0.1183
     16 C13         5.6179  -10.8613    8.9949 C.3       1 <0>        -0.1162
     17 C14         6.3255  -11.5496   10.1638 C.3       1 <0>        -0.1347
     18 C15         6.1474  -13.0647   10.0469 C.3       1 <0>         0.1064
     19 N1          6.9202  -13.7299   11.0988 N.pl3     1 <0>        -0.4735
     20 C16         6.4261  -14.1010   12.3327 C.ar      1 <0>         0.1004
     21 C17         5.1756  -13.9850   12.9300 C.ar      1 <0>        -0.1130
     22 C18         4.9750  -14.4601   14.2071 C.ar      1 <0>        -0.1190
     23 C19         6.0152  -15.0597   14.9129 C.ar      1 <0>         0.0751
     24 C20         7.2639  -15.1853   14.3387 C.ar      1 <0>        -0.0939
     25 C21         7.4797  -14.7063   13.0427 C.ar      1 <0>        -0.0885
     26 C22         8.6424  -14.6764   12.1568 C.2       1 <0>        -0.1490
     27 C23         8.2459  -14.0838   11.0030 C.2       1 <0>         0.1180
     28 C24         9.1075  -13.8509    9.8241 C.ar      1 <0>        -0.0378
     29 C25         8.7217  -14.3279    8.5703 C.ar      1 <0>        -0.0884
     30 C26         9.5277  -14.1089    7.4736 C.ar      1 <0>        -0.1419
     31 C27        10.7220  -13.4147    7.6150 C.ar      1 <0>         0.1147
     32 C28        11.1095  -12.9390    8.8608 C.ar      1 <0>        -0.1416
     33 C29        10.3060  -13.1486    9.9611 C.ar      1 <0>        -0.0767
     34 O3         11.5138  -13.2008    6.5318 O.3       1 <0>        -0.4983
     35 C30        10.0184  -15.2081   12.4650 C.3       1 <0>        -0.0816
     36 O4          5.7998  -15.5228   16.1732 O.3       1 <0>        -0.4978
     37 H1          4.0074    4.6645    3.2243 H         1 <0>         0.0542
     38 H2          2.4677    5.0880    2.4379 H         1 <0>         0.0559
     39 H3          2.5142    4.7657    4.1879 H         1 <0>         0.0542
     40 H4          1.5844    2.8285    2.9505 H         1 <0>         0.0646
     41 H5          3.0776    2.7272    1.9869 H         1 <0>         0.0646
     42 H6          4.3869    2.3395    4.0567 H         1 <0>         0.0666
     43 H7          2.8938    2.4407    5.0202 H         1 <0>         0.0666
     44 H8          1.9639    0.5035    3.7829 H         1 <0>         0.0810
     45 H9          3.4571    0.4023    2.8193 H         1 <0>         0.0810
     46 H10         4.7665    0.0146    4.8891 H         1 <0>         0.1325
     47 H11         3.2733    0.1158    5.8526 H         1 <0>         0.1325
     48 H12         5.2696   -2.4919    5.9320 H         1 <0>         0.1325
     49 H13         3.7764   -2.3906    6.8956 H         1 <0>         0.1325
     50 H14         2.9673   -4.4947    5.8627 H         1 <0>         0.0808
     51 H15         4.4604   -4.5959    4.8991 H         1 <0>         0.0808
     52 H16         5.7991   -4.6953    6.9840 H         1 <0>         0.0664
     53 H17         4.3059   -4.5941    7.9476 H         1 <0>         0.0666
     54 H18         3.4968   -6.6982    6.9147 H         1 <0>         0.0650
     55 H19         4.9899   -6.7994    5.9511 H         1 <0>         0.0647
     56 H20         6.3286   -6.8988    8.0360 H         1 <0>         0.0615
     57 H21         4.8354   -6.7976    8.9996 H         1 <0>         0.0618
     58 H22         4.0263   -8.9016    7.9667 H         1 <0>         0.0623
     59 H23         5.5194   -9.0029    7.0031 H         1 <0>         0.0618
     60 H24         6.8581   -9.1023    9.0880 H         1 <0>         0.0614
     61 H25         5.3649   -9.0011   10.0516 H         1 <0>         0.0621
     62 H26         4.5558  -11.1051    9.0187 H         1 <0>         0.0650
     63 H27         6.0489  -11.2063    8.0552 H         1 <0>         0.0644
     64 H28         7.3876  -11.3058   10.1400 H         1 <0>         0.0694
     65 H29         5.8944  -11.2046   11.1036 H         1 <0>         0.0690
     66 H30         5.0925  -13.3161   10.1570 H         1 <0>         0.0880
     67 H31         6.5003  -13.3978    9.0709 H         1 <0>         0.0888
     68 H32         4.3614  -13.5219   12.3923 H         1 <0>         0.1228
     69 H33         4.0017  -14.3664   14.6658 H         1 <0>         0.1315
     70 H34         8.0698  -15.6501   14.8872 H         1 <0>         0.1286
     71 H35         7.7931  -14.8682    8.4596 H         1 <0>         0.1262
     72 H36         9.2301  -14.4780    6.5033 H         1 <0>         0.1328
     73 H37        12.0393  -12.3998    8.9668 H         1 <0>         0.1342
     74 H38        10.6055  -12.7738   10.9287 H         1 <0>         0.1328
     75 H39        11.3204  -12.3796    6.0593 H         1 <0>         0.3933
     76 H40        10.0823  -16.2515   12.1563 H         1 <0>         0.0649
     77 H41        10.7632  -14.6232   11.9252 H         1 <0>         0.0649
     78 H42        10.2050  -15.1341   13.5364 H         1 <0>         0.0658
     79 H43         5.5068  -16.4437   16.2091 H         1 <0>         0.3865
@<TRIPOS>BOND
     1    1    2 1
     2    1   37 1
     3    1   38 1
     4    1   39 1
     5    2    3 1
     6    2   40 1
     7    2   41 1
     8    3    4 1
     9    3   42 1
    10    3   43 1
    11    4    5 1
    12    4   44 1
    13    4   45 1
    14    5    6 1
    15    5   46 1
    16    5   47 1
    17    6    7 2
    18    6    8 2
    19    6    9 1
    20    9   10 1
    21    9   48 1
    22    9   49 1
    23   10   11 1
    24   10   50 1
    25   10   51 1
    26   11   12 1
    27   11   52 1
    28   11   53 1
    29   12   13 1
    30   12   54 1
    31   12   55 1
    32   13   14 1
    33   13   56 1
    34   13   57 1
    35   14   15 1
    36   14   58 1
    37   14   59 1
    38   15   16 1
    39   15   60 1
    40   15   61 1
    41   16   17 1
    42   16   62 1
    43   16   63 1
    44   17   18 1
    45   17   64 1
    46   17   65 1
    47   18   19 1
    48   18   66 1
    49   18   67 1
    50   19   27 1
    51   19   20 1
    52   20   25 ar
    53   20   21 ar
    54   21   22 ar
    55   21   68 1
    56   22   23 ar
    57   22   69 1
    58   23   24 ar
    59   23   36 1
    60   24   25 ar
    61   24   70 1
    62   25   26 1
    63   26   27 2
    64   26   35 1
    65   27   28 1
    66   28   33 ar
    67   28   29 ar
    68   29   30 ar
    69   29   71 1
    70   30   31 ar
    71   30   72 1
    72   31   32 ar
    73   31   34 1
    74   32   33 ar
    75   32   73 1
    76   33   74 1
    77   34   75 1
    78   35   76 1
    79   35   77 1
    80   35   78 1
    81   36   79 1
