@<TRIPOS>MOLECULE
CHEMBL276660
   67    68     0     0     0
SMALL
USER_CHARGES

@<TRIPOS>ATOM
      1 C1          0.3785   -5.2116   -2.0886 C.3       1 <0>        -0.1533
      2 C2          0.7210   -3.9475   -1.2976 C.3       1 <0>        -0.1230
      3 C3          1.5575   -4.3233   -0.0728 C.3       1 <0>        -0.1119
      4 C4          1.9000   -3.0592    0.7182 C.3       1 <0>        -0.0922
      5 C5          2.6176   -3.4399    1.9875 C.2       1 <0>        -0.0664
      6 C6          1.9262   -3.6159    3.1203 C.2       1 <0>        -0.0786
      7 C7          2.6398   -3.9103    4.3862 C.ar      1 <0>        -0.0438
      8 C8          3.4467   -2.9379    4.9757 C.ar      1 <0>        -0.0908
      9 C9          4.1087   -3.2146    6.1532 C.ar      1 <0>        -0.1417
     10 C10         3.9723   -4.4599    6.7519 C.ar      1 <0>         0.1081
     11 C11         3.1699   -5.4305    6.1672 C.ar      1 <0>        -0.1429
     12 C12         2.5007   -5.1581    4.9927 C.ar      1 <0>        -0.0934
     13 O1          4.6258   -4.7295    7.9122 O.3       1 <0>        -0.4988
     14 C13         0.4470   -3.5165    3.1090 C.ar      1 <0>        -0.0417
     15 C14        -0.1687   -2.2807    2.9142 C.ar      1 <0>        -0.0681
     16 C15        -1.5447   -2.1916    2.9043 C.ar      1 <0>        -0.1375
     17 C16        -2.3170   -3.3307    3.0884 C.ar      1 <0>         0.1092
     18 C17        -1.7069   -4.5627    3.2826 C.ar      1 <0>        -0.1981
     19 C18        -0.3314   -4.6595    3.2875 C.ar      1 <0>        -0.0680
     20 O2         -3.6726   -3.2394    3.0790 O.3       1 <0>        -0.3279
     21 C19        -4.4057   -4.4504    3.2745 C.3       1 <0>         0.0263
     22 C20        -5.9055   -4.1510    3.2325 C.3       1 <0>        -0.0060
     23 N1         -6.2746   -3.6858    1.8888 N.4       1 <0>        -0.3873
     24 C21        -6.0677   -4.7713    0.9209 C.3       1 <0>        -0.0175
     25 C22        -6.3368   -4.2520   -0.4929 C.3       1 <0>        -0.1879
     26 C23        -7.6878   -3.2849    1.8804 C.3       1 <0>        -0.0157
     27 C24        -7.8794   -2.0723    2.7935 C.3       1 <0>        -0.1892
     28 C25         4.1135   -3.6225    1.9816 C.3       1 <0>        -0.0985
     29 C26         4.4509   -5.0537    1.5591 C.3       1 <0>        -0.1447
     30 H1         -0.1897   -5.8934   -1.4558 H         1 <0>         0.0500
     31 H2         -0.2174   -4.9439   -2.9611 H         1 <0>         0.0536
     32 H3          1.2986   -5.6981   -2.4123 H         1 <0>         0.0566
     33 H4          1.2893   -3.2658   -1.9304 H         1 <0>         0.0632
     34 H5         -0.1991   -3.4610   -0.9738 H         1 <0>         0.0560
     35 H6          0.9892   -5.0051    0.5600 H         1 <0>         0.0600
     36 H7          2.4776   -4.8098   -0.3966 H         1 <0>         0.0672
     37 H8          2.5426   -2.4168    0.1162 H         1 <0>         0.0742
     38 H9          0.9823   -2.5257    0.9657 H         1 <0>         0.0747
     39 H10         3.5535   -1.9692    4.5103 H         1 <0>         0.1275
     40 H11         4.7341   -2.4620    6.6101 H         1 <0>         0.1316
     41 H12         3.0661   -6.3983    6.6351 H         1 <0>         0.1296
     42 H13         1.8728   -5.9118    4.5409 H         1 <0>         0.1222
     43 H14         4.1215   -4.5106    8.7077 H         1 <0>         0.3928
     44 H15         0.4315   -1.3943    2.7716 H         1 <0>         0.1354
     45 H16        -2.0222   -1.2347    2.7535 H         1 <0>         0.1329
     46 H17        -2.3104   -5.4468    3.4260 H         1 <0>         0.1265
     47 H18         0.1425   -5.6188    3.4341 H         1 <0>         0.1283
     48 H19        -4.1543   -5.1587    2.4850 H         1 <0>         0.0856
     49 H20        -4.1477   -4.8790    4.2429 H         1 <0>         0.1084
     50 H21        -6.4636   -5.0568    3.4694 H         1 <0>         0.1490
     51 H22        -6.1421   -3.3770    3.9626 H         1 <0>         0.1442
     52 H23        -5.0395   -5.1267    0.9878 H         1 <0>         0.1282
     53 H24        -6.7507   -5.5912    1.1429 H         1 <0>         0.1310
     54 H25        -5.6473   -3.4385   -0.7186 H         1 <0>         0.0810
     55 H26        -6.1927   -5.0599   -1.2103 H         1 <0>         0.1068
     56 H27        -7.3621   -3.8876   -0.5572 H         1 <0>         0.0815
     57 H28        -7.9858   -3.0255    0.8645 H         1 <0>         0.1338
     58 H29        -8.3019   -4.1108    2.2395 H         1 <0>         0.1300
     59 H30        -8.9298   -1.7813    2.7955 H         1 <0>         0.1069
     60 H31        -7.5714   -2.3285    3.8072 H         1 <0>         0.0800
     61 H32        -7.2734   -1.2431    2.4283 H         1 <0>         0.0816
     62 H33         4.5624   -2.9207    1.2787 H         1 <0>         0.0727
     63 H34         4.5061   -3.4366    2.9813 H         1 <0>         0.0784
     64 H35         3.9102   -5.7567    2.1928 H         1 <0>         0.0545
     65 H36         4.1600   -5.2038    0.5194 H         1 <0>         0.0568
     66 H37         5.5230   -5.2204    1.6641 H         1 <0>         0.0598
     67 H38        -5.6994   -2.8961    1.6365 H         1 <0>         0.4293
@<TRIPOS>BOND
     1    1    2 1
     2    1   30 1
     3    1   31 1
     4    1   32 1
     5    2    3 1
     6    2   33 1
     7    2   34 1
     8    3    4 1
     9    3   35 1
    10    3   36 1
    11    4    5 1
    12    4   37 1
    13    4   38 1
    14    5    6 2
    15    5   28 1
    16    6    7 1
    17    6   14 1
    18    7   12 ar
    19    7    8 ar
    20    8    9 ar
    21    8   39 1
    22    9   10 ar
    23    9   40 1
    24   10   11 ar
    25   10   13 1
    26   11   12 ar
    27   11   41 1
    28   12   42 1
    29   13   43 1
    30   14   19 ar
    31   14   15 ar
    32   15   16 ar
    33   15   44 1
    34   16   17 ar
    35   16   45 1
    36   17   18 ar
    37   17   20 1
    38   18   19 ar
    39   18   46 1
    40   19   47 1
    41   20   21 1
    42   21   22 1
    43   21   48 1
    44   21   49 1
    45   22   23 1
    46   22   50 1
    47   22   51 1
    48   23   24 1
    49   23   26 1
    50   23   67 1
    51   24   25 1
    52   24   52 1
    53   24   53 1
    54   25   54 1
    55   25   55 1
    56   25   56 1
    57   26   27 1
    58   26   57 1
    59   26   58 1
    60   27   59 1
    61   27   60 1
    62   27   61 1
    63   28   29 1
    64   28   62 1
    65   28   63 1
    66   29   64 1
    67   29   65 1
    68   29   66 1
