@<TRIPOS>MOLECULE
CHEMBL398552
   74    80     0     0     0
SMALL
USER_CHARGES

@<TRIPOS>ATOM
      1 C1         -0.0187    1.5258    0.0104 C.3       1 <0>        -0.1379
      2 C2          0.0021   -0.0041    0.0020 C.3       1 <0>        -0.0416
      3 C3         -1.4064   -0.5323    0.1772 C.3       1 <0>        -0.0997
      4 C4         -1.9756    0.0797    1.4714 C.3       1 <0>        -0.1133
      5 C5         -1.0851   -0.2532    2.6598 C.3       1 <0>        -0.0413
      6 H1         -1.0806   -1.3360    2.7843 H         1 <0>         0.0760
      7 C6         -1.6005    0.3571    3.9311 C.ar      1 <0>        -0.0761
      8 C7         -2.9742    0.4710    4.0964 C.ar      1 <0>        -0.1027
      9 C8         -3.5002    1.0150    5.2487 C.ar      1 <0>        -0.1470
     10 C9         -2.6480    1.4512    6.2530 C.ar      1 <0>         0.1018
     11 C10        -1.2787    1.3413    6.0863 C.ar      1 <0>        -0.1481
     12 C11        -0.7495    0.7994    4.9225 C.ar      1 <0>        -0.0581
     13 C12         0.7502    0.7384    4.8002 C.3       1 <0>        -0.0819
     14 C13         1.1786   -0.1827    3.6588 C.3       1 <0>        -0.1128
     15 C14         0.3612    0.2021    2.4252 C.3       1 <0>        -0.0742
     16 H2          0.3879    1.2814    2.2748 H         1 <0>         0.0877
     17 C15         0.8604   -0.5199    1.1907 C.3       1 <0>        -0.0804
     18 H3          0.7388   -1.5961    1.3133 H         1 <0>         0.0783
     19 C16         2.2767   -0.1707    0.7204 C.3       1 <0>        -0.1105
     20 C17         2.2489   -0.5546   -0.7844 C.3       1 <0>        -0.1428
     21 C18         0.7638   -0.4984   -1.2221 C.3       1 <0>         0.2644
     22 C19         0.2945   -1.8392   -1.6079 C.1       1 <0>        -0.2051
     23 C20        -0.0798   -2.9086   -1.9155 C.1       1 <0>        -0.0610
     24 C21        -0.5363   -4.2130   -2.2908 C.2       1 <0>        -0.0568
     25 C22        -1.5883   -5.0020   -1.6307 C.ar      1 <0>        -0.0819
     26 C23        -2.4143   -4.7754   -0.5295 C.ar      1 <0>        -0.0687
     27 C24        -3.3182   -5.7282   -0.1506 C.ar      1 <0>        -0.1398
     28 C25        -3.4199   -6.9204   -0.8536 C.ar      1 <0>        -0.0969
     29 C26        -2.6135   -7.1639   -1.9440 C.ar      1 <0>        -0.1269
     30 C27        -1.6865   -6.2071   -2.3472 C.ar      1 <0>         0.0996
     31 N1         -0.7654   -6.1669   -3.3730 N.pl3     1 <0>        -0.5793
     32 H4         -0.6249   -6.8750   -4.0208 H         1 <0>         0.4189
     33 C28        -0.0800   -4.9773   -3.3485 C.2       1 <0>         0.1683
     34 C29         0.9774   -4.5800   -4.2971 C.ar      1 <0>        -0.0843
     35 C30         0.6719   -4.3777   -5.6449 C.ar      1 <0>        -0.0576
     36 C31         1.6651   -4.0064   -6.5265 C.ar      1 <0>        -0.1585
     37 C32         2.9646   -3.8330   -6.0814 C.ar      1 <0>        -0.0631
     38 C33         3.2796   -4.0301   -4.7500 C.ar      1 <0>        -0.2115
     39 C34         2.2930   -4.3976   -3.8499 C.ar      1 <0>         0.1643
     40 O1          2.6005   -4.5860   -2.5405 O.3       1 <0>        -0.2991
     41 C35         3.9621   -4.3820   -2.1579 C.3       1 <0>         0.0248
     42 O2          0.6019    0.4156   -2.3086 O.3       1 <0>        -0.5417
     43 O3         -3.1559    1.9844    7.3952 O.3       1 <0>        -0.5004
     44 H5          1.0033    1.9032   -0.0250 H         1 <0>         0.0567
     45 H6         -0.5695    1.8864   -0.8582 H         1 <0>         0.0637
     46 H7         -0.5045    1.8775    0.9205 H         1 <0>         0.0632
     47 H8         -2.0207   -0.2365   -0.6732 H         1 <0>         0.0669
     48 H9         -1.3862   -1.6190    0.2597 H         1 <0>         0.0670
     49 H10        -2.0364    1.1623    1.3603 H         1 <0>         0.0706
     50 H11        -2.9745   -0.3191    1.6483 H         1 <0>         0.0653
     51 H12        -3.6371    0.1306    3.3147 H         1 <0>         0.1278
     52 H13        -4.5700    1.1016    5.3689 H         1 <0>         0.1271
     53 H14        -0.6155    1.6804    6.8684 H         1 <0>         0.1254
     54 H15         1.1338    1.7413    4.6125 H         1 <0>         0.0777
     55 H16         1.1695    0.3666    5.7351 H         1 <0>         0.0741
     56 H17         2.2408   -0.0469    3.4558 H         1 <0>         0.0717
     57 H18         0.9854   -1.2202    3.9313 H         1 <0>         0.0651
     58 H19         2.4720    0.8946    0.8429 H         1 <0>         0.0749
     59 H20         3.0180   -0.7638    1.2560 H         1 <0>         0.0672
     60 H21         2.8367    0.1577   -1.3632 H         1 <0>         0.0790
     61 H22         2.6412   -1.5624   -0.9207 H         1 <0>         0.0698
     62 H23        -2.3395   -3.8499    0.0222 H         1 <0>         0.1219
     63 H24        -3.9574   -5.5522    0.7020 H         1 <0>         0.1248
     64 H25        -4.1380   -7.6648   -0.5428 H         1 <0>         0.1275
     65 H26        -2.7001   -8.0951   -2.4842 H         1 <0>         0.1225
     66 H27        -0.3405   -4.5123   -5.9962 H         1 <0>         0.1313
     67 H28         1.4284   -3.8505   -7.5687 H         1 <0>         0.1301
     68 H29         3.7367   -3.5424   -6.7785 H         1 <0>         0.1294
     69 H30         4.2957   -3.8932   -4.4104 H         1 <0>         0.1336
     70 H31         4.6019   -5.0698   -2.7109 H         1 <0>         0.0562
     71 H32         4.2526   -3.3556   -2.3822 H         1 <0>         0.0580
     72 H33         4.0705   -4.5649   -1.0888 H         1 <0>         0.1015
     73 H34         1.0650    0.1529   -3.1159 H         1 <0>         0.3773
     74 H35        -3.3231    1.3350    8.0920 H         1 <0>         0.3897
@<TRIPOS>BOND
     1    1    2 1
     2    1   44 1
     3    1   45 1
     4    1   46 1
     5    2   17 1
     6    2   21 1
     7    2    3 1
     8    3    4 1
     9    3   47 1
    10    3   48 1
    11    4    5 1
    12    4   49 1
    13    4   50 1
    14    5    6 1
    15    5   15 1
    16    5    7 1
    17    7   12 ar
    18    7    8 ar
    19    8    9 ar
    20    8   51 1
    21    9   10 ar
    22    9   52 1
    23   10   11 ar
    24   10   43 1
    25   11   12 ar
    26   11   53 1
    27   12   13 1
    28   13   14 1
    29   13   54 1
    30   13   55 1
    31   14   15 1
    32   14   56 1
    33   14   57 1
    34   15   16 1
    35   15   17 1
    36   17   18 1
    37   17   19 1
    38   19   20 1
    39   19   58 1
    40   19   59 1
    41   20   21 1
    42   20   60 1
    43   20   61 1
    44   21   22 1
    45   21   42 1
    46   22   23 3
    47   23   24 1
    48   24   33 2
    49   24   25 1
    50   25   30 ar
    51   25   26 ar
    52   26   27 ar
    53   26   62 1
    54   27   28 ar
    55   27   63 1
    56   28   29 ar
    57   28   64 1
    58   29   30 ar
    59   29   65 1
    60   30   31 1
    61   31   32 1
    62   31   33 1
    63   33   34 1
    64   34   39 ar
    65   34   35 ar
    66   35   36 ar
    67   35   66 1
    68   36   37 ar
    69   36   67 1
    70   37   38 ar
    71   37   68 1
    72   38   39 ar
    73   38   69 1
    74   39   40 1
    75   40   41 1
    76   41   70 1
    77   41   71 1
    78   41   72 1
    79   42   73 1
    80   43   74 1
