@<TRIPOS>MOLECULE
CHEMBL193518
   41    44     0     0     0
SMALL
USER_CHARGES

@<TRIPOS>ATOM
      1 C1          7.4274   -1.8862   -2.4385 C.ar      1 <0>        -0.1161
      2 C2          6.3848   -2.7825   -2.2947 C.ar      1 <0>        -0.1165
      3 C3          5.2748   -2.4374   -1.5466 C.ar      1 <0>        -0.1057
      4 C4          5.2076   -1.1962   -0.9419 C.ar      1 <0>        -0.0836
      5 C5          6.2505   -0.3003   -1.0848 C.ar      1 <0>        -0.1127
      6 C6          7.3599   -0.6448   -1.8341 C.ar      1 <0>        -0.1172
      7 C7          3.9970   -0.8196   -0.1271 C.3       1 <0>        -0.0563
      8 C8          4.2533   -1.1283    1.3255 C.2       1 <0>         0.0454
      9 C9          4.9094   -0.1905    2.1647 C.ar      1 <0>        -0.1483
     10 C10         5.1534    1.1161    1.7167 C.ar      1 <0>        -0.0417
     11 C11         5.7489    2.0189    2.5475 C.ar      1 <0>        -0.1622
     12 C12         6.1253    1.6518    3.8384 C.ar      1 <0>         0.1682
     13 C13         5.9098    0.3604    4.2923 C.ar      1 <0>        -0.1617
     14 C14         5.3116   -0.5711    3.4588 C.ar      1 <0>         0.1587
     15 O1          5.1318   -1.8487    3.8743 O.3       1 <0>        -0.2725
     16 C15         4.1137   -2.5357    3.3061 C.2       1 <0>         0.5193
     17 O2          3.4316   -3.3034    3.9596 O.2       1 <0>        -0.4279
     18 C16         3.8532   -2.3220    1.8734 C.2       1 <0>        -0.1759
     19 C17         3.1875   -3.3594    1.0512 C.ar      1 <0>        -0.0210
     20 C18         1.9159   -3.1278    0.5275 C.ar      1 <0>        -0.0907
     21 C19         1.3008   -4.0970   -0.2379 C.ar      1 <0>        -0.1067
     22 C20         1.9435   -5.2980   -0.4859 C.ar      1 <0>        -0.0288
     23 C21         3.2058   -5.5334    0.0320 C.ar      1 <0>        -0.1055
     24 C22         3.8327   -4.5686    0.7934 C.ar      1 <0>        -0.0844
     25 Cl1         1.1635   -6.5135   -1.4493 Cl        1 <0>        -0.0645
     26 O3          6.7073    2.5655    4.6564 O.3       1 <0>        -0.4900
     27 H1          8.2966   -2.1576   -3.0192 H         1 <0>         0.1229
     28 H2          6.4374   -3.7523   -2.7672 H         1 <0>         0.1235
     29 H3          4.4600   -3.1374   -1.4349 H         1 <0>         0.1219
     30 H4          6.1978    0.6696   -0.6126 H         1 <0>         0.1214
     31 H5          8.1746    0.0553   -1.9461 H         1 <0>         0.1237
     32 H6          3.7985    0.2459   -0.2426 H         1 <0>         0.0968
     33 H7          3.1346   -1.3895   -0.4730 H         1 <0>         0.1003
     34 H8          4.8700    1.4067    0.7159 H         1 <0>         0.1454
     35 H9          5.9305    3.0261    2.2025 H         1 <0>         0.1438
     36 H10         6.2065    0.0811    5.2924 H         1 <0>         0.1517
     37 H11         1.4134   -2.1916    0.7210 H         1 <0>         0.1355
     38 H12         0.3161   -3.9187   -0.6439 H         1 <0>         0.1390
     39 H13         3.7024   -6.4722   -0.1640 H         1 <0>         0.1385
     40 H14         4.8193   -4.7513    1.1929 H         1 <0>         0.1317
     41 H15         6.0800    3.0687    5.1933 H         1 <0>         0.4023
@<TRIPOS>BOND
     1    1    6 ar
     2    1    2 ar
     3    1   27 1
     4    2    3 ar
     5    2   28 1
     6    3    4 ar
     7    3   29 1
     8    4    5 ar
     9    4    7 1
    10    5    6 ar
    11    5   30 1
    12    6   31 1
    13    7    8 1
    14    7   32 1
    15    7   33 1
    16    8   18 2
    17    8    9 1
    18    9   14 ar
    19    9   10 ar
    20   10   11 ar
    21   10   34 1
    22   11   12 ar
    23   11   35 1
    24   12   13 ar
    25   12   26 1
    26   13   14 ar
    27   13   36 1
    28   14   15 1
    29   15   16 1
    30   16   17 2
    31   16   18 1
    32   18   19 1
    33   19   24 ar
    34   19   20 ar
    35   20   21 ar
    36   20   37 1
    37   21   22 ar
    38   21   38 1
    39   22   23 ar
    40   22   25 1
    41   23   24 ar
    42   23   39 1
    43   24   40 1
    44   26   41 1
