@<TRIPOS>MOLECULE
CHEMBL356893
   79    83     0     0     0
SMALL
USER_CHARGES

@<TRIPOS>ATOM
      1 C1          0.0184    1.4610    0.0098 C.3       1 <0>         0.0786
      2 N1          0.0256   -0.0040    0.0018 N.pl3     1 <0>        -0.5288
      3 C2          0.0476   -0.7433    1.2664 C.3       1 <0>         0.1107
      4 C3         -1.3870   -1.0078    1.7276 C.3       1 <0>        -0.1284
      5 C4         -1.3640   -1.7799    3.0483 C.3       1 <0>        -0.0764
      6 C5         -2.7771   -2.0404    3.5025 C.ar      1 <0>        -0.0839
      7 C6         -3.4233   -1.1235    4.3104 C.ar      1 <0>        -0.1033
      8 C7         -4.7193   -1.3619    4.7274 C.ar      1 <0>        -0.1066
      9 C8         -5.3699   -2.5185    4.3360 C.ar      1 <0>        -0.0361
     10 C9         -4.7226   -3.4358    3.5275 C.ar      1 <0>        -0.1084
     11 C10        -3.4286   -3.1936    3.1066 C.ar      1 <0>        -0.1043
     12 Cl1        -6.9975   -2.8188    4.8598 Cl        1 <0>        -0.0633
     13 C11         0.0116   -0.6876   -1.1970 C.ar      1 <0>         0.6718
     14 N2          0.0126   -2.0171   -1.2042 N.ar      1 <0>        -0.6168
     15 C12        -0.0010   -2.6755   -2.3588 C.ar      1 <0>         0.6930
     16 N3         -0.0155   -2.0046   -3.5065 N.ar      1 <0>        -0.6395
     17 C13        -0.0169   -0.6754   -3.4993 C.ar      1 <0>         0.6867
     18 N4         -0.0084   -0.0168   -2.3444 N.ar      1 <0>        -0.6176
     19 N5         -0.0315    0.0211   -4.6907 N.pl3     1 <0>        -0.5541
     20 C14        -0.1499    1.4870   -4.7068 C.3       1 <0>         0.1233
     21 C15         0.9712    2.0564   -5.5826 C.3       1 <0>         0.0366
     22 N6          0.9297    1.4153   -6.9037 N.3       1 <0>        -0.5324
     23 C16         1.1833   -0.0281   -6.8038 C.3       1 <0>         0.0385
     24 C17         0.0770   -0.6824   -5.9778 C.3       1 <0>         0.1057
     25 C18         1.8761    2.0534   -7.8285 C.3       1 <0>         0.1079
     26 C19         1.6355    1.5421   -9.2255 C.ar      1 <0>         0.1220
     27 C20         0.8259    2.2599  -10.0857 C.ar      1 <0>        -0.1480
     28 C21         0.6110    1.7809  -11.3687 C.ar      1 <0>        -0.0723
     29 C22         1.2211    0.5923  -11.7402 C.ar      1 <0>        -0.1659
     30 C23         2.0173   -0.0704  -10.8258 C.ar      1 <0>         0.0993
     31 N7          2.2038    0.4178   -9.6149 N.ar      1 <0>        -0.4859
     32 N8          0.0005   -4.0556   -2.3662 N.pl3     1 <0>        -0.6639
     33 C24        -0.0144   -4.7812   -3.6388 C.3       1 <0>         0.0938
     34 C25        -0.0093   -6.2870   -3.3673 C.3       1 <0>        -0.0841
     35 C26        -0.0246   -7.0334   -4.6764 C.ar      1 <0>        -0.1113
     36 C27        -1.2296   -7.3717   -5.2639 C.ar      1 <0>        -0.0934
     37 C28        -1.2464   -8.0564   -6.4636 C.ar      1 <0>        -0.1428
     38 C29        -0.0527   -8.4042   -7.0792 C.ar      1 <0>         0.1187
     39 C30         1.1551   -8.0632   -6.4879 C.ar      1 <0>        -0.1426
     40 C31         1.1664   -7.3739   -5.2907 C.ar      1 <0>        -0.0933
     41 O1         -0.0665   -9.0781   -8.2592 O.3       1 <0>        -0.4971
     42 H1          1.0442    1.8294   -0.0032 H         1 <0>         0.0766
     43 H2         -0.5101    1.8266   -0.8707 H         1 <0>         0.0921
     44 H3         -0.4841    1.8170    0.9091 H         1 <0>         0.0914
     45 H4          0.5642   -1.6924    1.1234 H         1 <0>         0.1013
     46 H5          0.5696   -0.1557    2.0217 H         1 <0>         0.0999
     47 H6         -1.9035   -0.0586    1.8705 H         1 <0>         0.0720
     48 H7         -1.9090   -1.5953    0.9723 H         1 <0>         0.0706
     49 H8         -0.8475   -2.7290    2.9053 H         1 <0>         0.0801
     50 H9         -0.8420   -1.1923    3.8036 H         1 <0>         0.0807
     51 H10        -2.9152   -0.2208    4.6161 H         1 <0>         0.1321
     52 H11        -5.2239   -0.6456    5.3588 H         1 <0>         0.1357
     53 H12        -5.2299   -4.3389    3.2219 H         1 <0>         0.1340
     54 H13        -2.9249   -3.9073    2.4715 H         1 <0>         0.1293
     55 H14        -1.1176    1.7717   -5.1199 H         1 <0>         0.1007
     56 H15        -0.0538    1.8733   -3.6921 H         1 <0>         0.1186
     57 H16         0.8340    3.1318   -5.6957 H         1 <0>         0.1078
     58 H17         1.9351    1.8597   -5.1131 H         1 <0>         0.0495
     59 H18         1.1999   -0.4645   -7.8025 H         1 <0>         0.1154
     60 H19         2.1442   -0.1958   -6.3173 H         1 <0>         0.0488
     61 H20         0.3231   -1.7298   -5.8030 H         1 <0>         0.0792
     62 H21        -0.8685   -0.6103   -6.5154 H         1 <0>         0.1095
     63 H22         1.7325    3.1337   -7.8072 H         1 <0>         0.0999
     64 H23         2.8959    1.8163   -7.5255 H         1 <0>         0.0601
     65 H24         0.3664    3.1822   -9.7623 H         1 <0>         0.1367
     66 H25        -0.0169    2.3203  -12.0623 H         1 <0>         0.1383
     67 H26         1.0755    0.1894  -12.7317 H         1 <0>         0.1382
     68 H27         2.4960   -0.9967  -11.1073 H         1 <0>         0.1577
     69 H28         0.0115   -4.5451   -1.5289 H         1 <0>         0.4437
     70 H29        -0.9116   -4.5159   -4.1979 H         1 <0>         0.0870
     71 H30         0.8682   -4.5138   -4.2199 H         1 <0>         0.0865
     72 H31         0.8880   -6.5523   -2.8082 H         1 <0>         0.0931
     73 H32        -0.8918   -6.5544   -2.7862 H         1 <0>         0.0932
     74 H33        -2.1586   -7.1008   -4.7843 H         1 <0>         0.1286
     75 H34        -2.1879   -8.3210   -6.9218 H         1 <0>         0.1338
     76 H35         2.0856   -8.3328   -6.9651 H         1 <0>         0.1339
     77 H36         2.1063   -7.1044   -4.8321 H         1 <0>         0.1286
     78 H37        -0.0730   -8.5061   -9.0388 H         1 <0>         0.3963
     79 H38        -0.0247   -2.4850   -4.3491 H         1 <0>         0.4327
@<TRIPOS>BOND
     1    1    2 1
     2    1   42 1
     3    1   43 1
     4    1   44 1
     5    2    3 1
     6    2   13 1
     7    3    4 1
     8    3   45 1
     9    3   46 1
    10    4    5 1
    11    4   47 1
    12    4   48 1
    13    5    6 1
    14    5   49 1
    15    5   50 1
    16    6   11 ar
    17    6    7 ar
    18    7    8 ar
    19    7   51 1
    20    8    9 ar
    21    8   52 1
    22    9   10 ar
    23    9   12 1
    24   10   11 ar
    25   10   53 1
    26   11   54 1
    27   13   18 ar
    28   13   14 ar
    29   14   15 ar
    30   15   16 ar
    31   15   32 1
    32   16   17 ar
    33   16   79 1
    34   17   18 ar
    35   17   19 1
    36   19   24 1
    37   19   20 1
    38   20   21 1
    39   20   55 1
    40   20   56 1
    41   21   22 1
    42   21   57 1
    43   21   58 1
    44   22   23 1
    45   22   25 1
    46   23   24 1
    47   23   59 1
    48   23   60 1
    49   24   61 1
    50   24   62 1
    51   25   26 1
    52   25   63 1
    53   25   64 1
    54   26   31 ar
    55   26   27 ar
    56   27   28 ar
    57   27   65 1
    58   28   29 ar
    59   28   66 1
    60   29   30 ar
    61   29   67 1
    62   30   31 ar
    63   30   68 1
    64   32   33 1
    65   32   69 1
    66   33   34 1
    67   33   70 1
    68   33   71 1
    69   34   35 1
    70   34   72 1
    71   34   73 1
    72   35   40 ar
    73   35   36 ar
    74   36   37 ar
    75   36   74 1
    76   37   38 ar
    77   37   75 1
    78   38   39 ar
    79   38   41 1
    80   39   40 ar
    81   39   76 1
    82   40   77 1
    83   41   78 1
