@<TRIPOS>MOLECULE
CHEMBL328388
   66    70     0     0     0
SMALL
USER_CHARGES

@<TRIPOS>ATOM
      1 C1          0.8833    1.5152   -0.2790 C.3       1 <0>        -0.1484
      2 C2          0.4456    0.0519   -0.1889 C.3       1 <0>         0.2865
      3 C3          1.1281   -0.7437   -1.2735 C.ar      1 <0>        -0.0910
      4 C4          1.0969   -0.2351   -2.5655 C.ar      1 <0>        -0.0996
      5 C5          1.6931   -0.9193   -3.6033 C.ar      1 <0>        -0.1469
      6 C6          2.3285   -2.1274   -3.3539 C.ar      1 <0>         0.1131
      7 C7          2.3624   -2.6314   -2.0654 C.ar      1 <0>        -0.1473
      8 C8          1.7664   -1.9375   -1.0202 C.ar      1 <0>        -0.0410
      9 C9          1.8670   -2.5336    0.3592 C.3       1 <0>        -0.1030
     10 C10         0.7985   -1.9511    1.2828 C.3       1 <0>         0.1372
     11 N1          0.8128   -0.4873    1.1248 N.pl3     1 <0>        -0.6661
     12 C11         1.1624    0.3541    2.1833 C.ar      1 <0>         0.1930
     13 C12         0.1782    0.8611    3.0234 C.ar      1 <0>        -0.1387
     14 C13         0.5242    1.6931    4.0701 C.ar      1 <0>        -0.0957
     15 C14         1.8490    2.0233    4.2852 C.ar      1 <0>        -0.1475
     16 C15         2.8361    1.5196    3.4499 C.ar      1 <0>         0.1156
     17 C16         2.4937    0.6804    2.4012 C.ar      1 <0>        -0.1495
     18 O1          4.1382    1.8452    3.6629 O.3       1 <0>        -0.4992
     19 O2          2.9145   -2.8129   -4.3706 O.3       1 <0>        -0.4996
     20 C17        -1.0481   -0.0367   -0.3677 C.ar      1 <0>        -0.1011
     21 C18        -1.8336   -0.5656    0.6397 C.ar      1 <0>        -0.0652
     22 C19        -3.2030   -0.6483    0.4781 C.ar      1 <0>        -0.1419
     23 C20        -3.7901   -0.1997   -0.6961 C.ar      1 <0>         0.1093
     24 C21        -2.9998    0.3310   -1.7052 C.ar      1 <0>        -0.1991
     25 C22        -1.6313    0.4163   -1.5366 C.ar      1 <0>        -0.0740
     26 O3         -5.1371   -0.2804   -0.8577 O.3       1 <0>        -0.3292
     27 C23        -5.6723    0.2006   -2.0922 C.3       1 <0>         0.0276
     28 C24        -7.1926    0.0287   -2.0903 C.3       1 <0>         0.0037
     29 N2         -7.7809    0.8851   -1.0519 N.4       1 <0>        -0.3955
     30 C25        -7.6326    2.3157   -1.4230 C.3       1 <0>        -0.0103
     31 C26        -8.7379    3.0141   -0.5917 C.3       1 <0>        -0.1446
     32 C27        -9.8999    1.9954   -0.6365 C.3       1 <0>        -0.1450
     33 C28        -9.2367    0.6425   -0.9551 C.3       1 <0>        -0.0088
     34 H1          1.9661    1.5779   -0.1706 H         1 <0>         0.0705
     35 H2          0.5908    1.9230   -1.2466 H         1 <0>         0.0682
     36 H3          0.4048    2.0871    0.5160 H         1 <0>         0.0678
     37 H4          0.6009    0.7046   -2.7589 H         1 <0>         0.1261
     38 H5          1.6654   -0.5172   -4.6052 H         1 <0>         0.1302
     39 H6          2.8564   -3.5719   -1.8710 H         1 <0>         0.1293
     40 H7          1.7341   -3.6135    0.2936 H         1 <0>         0.0834
     41 H8          2.8530   -2.3190    0.7714 H         1 <0>         0.0823
     42 H9         -0.1807   -2.3423    1.0068 H         1 <0>         0.0640
     43 H10         1.0226   -2.2125    2.3170 H         1 <0>         0.0824
     44 H11        -0.8577    0.6047    2.8575 H         1 <0>         0.1223
     45 H12        -0.2420    2.0868    4.7216 H         1 <0>         0.1276
     46 H13         2.1163    2.6744    5.1044 H         1 <0>         0.1296
     47 H14         3.2610    0.2842    1.7526 H         1 <0>         0.1275
     48 H15         4.6041    1.2373    4.2531 H         1 <0>         0.3937
     49 H16         3.8420   -2.5823   -4.5173 H         1 <0>         0.3944
     50 H17        -1.3761   -0.9148    1.5536 H         1 <0>         0.1423
     51 H18        -3.8161   -1.0622    1.2650 H         1 <0>         0.1309
     52 H19        -3.4545    0.6809   -2.6203 H         1 <0>         0.1261
     53 H20        -1.0161    0.8335   -2.3201 H         1 <0>         0.1312
     54 H21        -5.4261    1.2560   -2.2084 H         1 <0>         0.0846
     55 H22        -5.2437   -0.3656   -2.9192 H         1 <0>         0.1075
     56 H23        -7.5916    0.3124   -3.0642 H         1 <0>         0.1482
     57 H24        -7.4403   -1.0128   -1.8857 H         1 <0>         0.1410
     58 H25        -6.6471    2.6861   -1.1409 H         1 <0>         0.1332
     59 H26        -7.8067    2.4564   -2.4898 H         1 <0>         0.1347
     60 H27        -8.4055    3.1751    0.4338 H         1 <0>         0.0983
     61 H28        -9.0323    3.9556   -1.0552 H         1 <0>         0.1173
     62 H29       -10.4026    1.9521    0.3297 H         1 <0>         0.1056
     63 H30       -10.6080    2.2635   -1.4206 H         1 <0>         0.1044
     64 H31        -9.6130    0.2586   -1.9033 H         1 <0>         0.1313
     65 H32        -9.4422   -0.0691   -0.1554 H         1 <0>         0.1328
     66 H33        -7.3388    0.7078   -0.1624 H         1 <0>         0.4335
@<TRIPOS>BOND
     1    1    2 1
     2    1   34 1
     3    1   35 1
     4    1   36 1
     5    2   11 1
     6    2    3 1
     7    2   20 1
     8    3    8 ar
     9    3    4 ar
    10    4    5 ar
    11    4   37 1
    12    5    6 ar
    13    5   38 1
    14    6    7 ar
    15    6   19 1
    16    7    8 ar
    17    7   39 1
    18    8    9 1
    19    9   10 1
    20    9   40 1
    21    9   41 1
    22   10   11 1
    23   10   42 1
    24   10   43 1
    25   11   12 1
    26   12   17 ar
    27   12   13 ar
    28   13   14 ar
    29   13   44 1
    30   14   15 ar
    31   14   45 1
    32   15   16 ar
    33   15   46 1
    34   16   17 ar
    35   16   18 1
    36   17   47 1
    37   18   48 1
    38   19   49 1
    39   20   25 ar
    40   20   21 ar
    41   21   22 ar
    42   21   50 1
    43   22   23 ar
    44   22   51 1
    45   23   24 ar
    46   23   26 1
    47   24   25 ar
    48   24   52 1
    49   25   53 1
    50   26   27 1
    51   27   28 1
    52   27   54 1
    53   27   55 1
    54   28   29 1
    55   28   56 1
    56   28   57 1
    57   29   33 1
    58   29   30 1
    59   29   66 1
    60   30   31 1
    61   30   58 1
    62   30   59 1
    63   31   32 1
    64   31   60 1
    65   31   61 1
    66   32   33 1
    67   32   62 1
    68   32   63 1
    69   33   64 1
    70   33   65 1
