@<TRIPOS>MOLECULE
CHEMBL178679
   63    68     0     0     0
SMALL
USER_CHARGES

@<TRIPOS>ATOM
      1 C1         -1.3305   -0.9499    3.4691 C.ar      1 <0>        -0.0732
      2 C2         -0.9404   -1.2393    4.7580 C.ar      1 <0>        -0.1465
      3 C3         -0.7857   -2.5607    5.1592 C.ar      1 <0>         0.1240
      4 C4         -1.0235   -3.5957    4.2631 C.ar      1 <0>        -0.1390
      5 C5         -1.4139   -3.3158    2.9722 C.ar      1 <0>        -0.0713
      6 C6         -1.5709   -1.9880    2.5640 C.ar      1 <0>        -0.0376
      7 C7         -1.9885   -1.6833    1.1834 C.2       1 <0>        -0.0547
      8 C8         -1.5009   -2.2181   -0.0019 C.2       1 <0>        -0.1537
      9 C9         -2.0873   -1.7474   -1.2593 C.ar      1 <0>        -0.0717
     10 C10        -1.7590   -2.1403   -2.5766 C.ar      1 <0>        -0.0572
     11 C11        -2.4093   -1.5967   -3.6530 C.ar      1 <0>        -0.1383
     12 C12        -3.4105   -0.6442   -3.4847 C.ar      1 <0>         0.1342
     13 C13        -3.7546   -0.2395   -2.2051 C.ar      1 <0>        -0.1022
     14 C14        -3.1028   -0.7832   -1.1181 C.ar      1 <0>        -0.1018
     15 S1         -3.2457   -0.5462    0.6346 S.3       1 <0>         0.0843
     16 O1         -4.0439   -0.1161   -4.5653 O.3       1 <0>        -0.4913
     17 C15        -0.4346   -3.2198    0.0049 C.2       1 <0>         0.4655
     18 O2         -0.7121   -4.4050   -0.0419 O.2       1 <0>        -0.4491
     19 C16         0.9775   -2.7943    0.0686 C.ar      1 <0>        -0.2269
     20 C17         1.3027   -1.4357    0.0157 C.ar      1 <0>        -0.0074
     21 C18         2.6201   -1.0422    0.0757 C.ar      1 <0>        -0.2140
     22 C19         3.6284   -1.9954    0.1890 C.ar      1 <0>         0.2572
     23 C20         3.3078   -3.3491    0.2420 C.ar      1 <0>        -0.2152
     24 C21         1.9920   -3.7487    0.1877 C.ar      1 <0>        -0.0033
     25 N1          4.9590   -1.5944    0.2490 N.pl3     1 <0>        -0.6172
     26 C22         5.3080   -0.1686    0.3211 C.3       1 <0>         0.1012
     27 C23         6.1902    0.0583    1.5550 C.3       1 <0>         0.1049
     28 N2          7.2721   -0.9363    1.5480 N.pl3     1 <0>        -0.6257
     29 C24         6.9231   -2.3621    1.4760 C.3       1 <0>         0.1039
     30 C25         6.0407   -2.5892    0.2477 C.3       1 <0>         0.1003
     31 C26         8.6089   -0.5335    1.6083 C.ar      1 <0>         0.2242
     32 C27         8.9240    0.8063    1.7955 C.ar      1 <0>        -0.1885
     33 C28        10.2460    1.2015    1.8552 C.ar      1 <0>        -0.0582
     34 C29        11.2562    0.2643    1.7282 C.ar      1 <0>        -0.0928
     35 C30        10.9450   -1.0711    1.5416 C.ar      1 <0>        -0.0582
     36 C31         9.6248   -1.4728    1.4869 C.ar      1 <0>        -0.1887
     37 Cl1        12.9168    0.7648    1.8026 Cl        1 <0>        -0.0779
     38 O3         -0.4006   -2.8413    6.4308 O.3       1 <0>        -0.4974
     39 H1         -1.4548    0.0773    3.1594 H         1 <0>         0.1335
     40 H2         -0.7542   -0.4380    5.4578 H         1 <0>         0.1361
     41 H3         -0.9016   -4.6212    4.5792 H         1 <0>         0.1362
     42 H4         -1.5981   -4.1209    2.2763 H         1 <0>         0.1341
     43 H5         -0.9862   -2.8774   -2.7367 H         1 <0>         0.1296
     44 H6         -2.1401   -1.9125   -4.6501 H         1 <0>         0.1382
     45 H7         -4.5292    0.4989   -2.0595 H         1 <0>         0.1408
     46 H8         -4.8319   -0.6060   -4.8376 H         1 <0>         0.3968
     47 H9          0.5210   -0.6958   -0.0725 H         1 <0>         0.1257
     48 H10         2.8720    0.0073    0.0346 H         1 <0>         0.1290
     49 H11         4.0922   -4.0862    0.3295 H         1 <0>         0.1300
     50 H12         1.7436   -4.7988    0.2329 H         1 <0>         0.1331
     51 H13         5.8539    0.1202   -0.5771 H         1 <0>         0.0719
     52 H14         4.3989    0.4267    0.4068 H         1 <0>         0.0974
     53 H15         6.6152    1.0614    1.5214 H         1 <0>         0.0963
     54 H16         5.5920   -0.0582    2.4587 H         1 <0>         0.0702
     55 H17         7.8322   -2.9573    1.3902 H         1 <0>         0.0969
     56 H18         6.3772   -2.6509    2.3741 H         1 <0>         0.0704
     57 H19         5.6155   -3.5921    0.2851 H         1 <0>         0.0980
     58 H20         6.6401   -2.4767   -0.6557 H         1 <0>         0.0721
     59 H21         8.1361    1.5383    1.8940 H         1 <0>         0.1312
     60 H22        10.4917    2.2431    2.0007 H         1 <0>         0.1325
     61 H23        11.7354   -1.8005    1.4428 H         1 <0>         0.1325
     62 H24         9.3825   -2.5158    1.3457 H         1 <0>         0.1314
     63 H25        -1.1297   -2.8702    7.0653 H         1 <0>         0.3952
@<TRIPOS>BOND
     1    1    6 ar
     2    1    2 ar
     3    1   39 1
     4    2    3 ar
     5    2   40 1
     6    3    4 ar
     7    3   38 1
     8    4    5 ar
     9    4   41 1
    10    5    6 ar
    11    5   42 1
    12    6    7 1
    13    7   15 1
    14    7    8 2
    15    8    9 1
    16    8   17 1
    17    9   14 ar
    18    9   10 ar
    19   10   11 ar
    20   10   43 1
    21   11   12 ar
    22   11   44 1
    23   12   13 ar
    24   12   16 1
    25   13   14 ar
    26   13   45 1
    27   14   15 1
    28   16   46 1
    29   17   18 2
    30   17   19 1
    31   19   24 ar
    32   19   20 ar
    33   20   21 ar
    34   20   47 1
    35   21   22 ar
    36   21   48 1
    37   22   23 ar
    38   22   25 1
    39   23   24 ar
    40   23   49 1
    41   24   50 1
    42   25   30 1
    43   25   26 1
    44   26   27 1
    45   26   51 1
    46   26   52 1
    47   27   28 1
    48   27   53 1
    49   27   54 1
    50   28   29 1
    51   28   31 1
    52   29   30 1
    53   29   55 1
    54   29   56 1
    55   30   57 1
    56   30   58 1
    57   31   36 ar
    58   31   32 ar
    59   32   33 ar
    60   32   59 1
    61   33   34 ar
    62   33   60 1
    63   34   35 ar
    64   34   37 1
    65   35   36 ar
    66   35   61 1
    67   36   62 1
    68   38   63 1
