@<TRIPOS>MOLECULE
CHEMBL293599
   33    35     0     0     0
SMALL
USER_CHARGES

@<TRIPOS>ATOM
      1 C1         -0.0167    1.3784    0.0096 C.ar      1 <0>        -0.0891
      2 C2          1.1695    2.0865    0.0021 C.ar      1 <0>        -0.1428
      3 C3          2.3802    1.4093   -0.0131 C.ar      1 <0>         0.1092
      4 C4          2.3963    0.0221   -0.0206 C.ar      1 <0>        -0.1438
      5 C5          1.2074   -0.6814   -0.0130 C.ar      1 <0>        -0.0904
      6 C6          0.0021   -0.0041    0.0020 C.ar      1 <0>        -0.1053
      7 C7         -1.2934   -0.7740    0.0107 C.3       1 <0>         0.1981
      8 C8         -1.6049   -1.2829   -1.4028 C.3       1 <0>        -0.1276
      9 C9         -2.9552   -1.9989   -1.3834 C.3       1 <0>        -0.0729
     10 C10        -2.9899   -3.0300   -0.2863 C.ar      1 <0>        -0.1376
     11 C11        -3.9135   -4.0593   -0.3643 C.ar      1 <0>        -0.1004
     12 C12        -3.9724   -5.0216    0.6305 C.ar      1 <0>         0.0501
     13 C13        -3.1052   -4.9571    1.7113 C.ar      1 <0>        -0.1018
     14 C14        -2.1829   -3.9334    1.7920 C.ar      1 <0>        -0.1730
     15 C15        -2.1221   -2.9690    0.7924 C.ar      1 <0>         0.2104
     16 N1         -1.1714   -1.9433    0.8919 N.pl3     1 <0>        -0.7460
     17 O1         -4.8812   -6.0300    0.5476 O.3       1 <0>        -0.4993
     18 O2          3.5484    2.1036   -0.0209 O.3       1 <0>        -0.4995
     19 H1         -0.9594    1.9052    0.0259 H         1 <0>         0.1301
     20 H2          1.1543    3.1664    0.0076 H         1 <0>         0.1317
     21 H3          3.3375   -0.5074   -0.0328 H         1 <0>         0.1304
     22 H4          1.2194   -1.7613   -0.0189 H         1 <0>         0.1280
     23 H5         -2.1021   -0.1317    0.3594 H         1 <0>         0.0772
     24 H6         -1.6482   -0.4403   -2.0930 H         1 <0>         0.0802
     25 H7         -0.8276   -1.9779   -1.7203 H         1 <0>         0.0731
     26 H8         -3.7471   -1.2688   -1.2161 H         1 <0>         0.0748
     27 H9         -3.1161   -2.4895   -2.3434 H         1 <0>         0.0790
     28 H10        -4.5908   -4.1117   -1.2040 H         1 <0>         0.1268
     29 H11        -3.1518   -5.7060    2.4881 H         1 <0>         0.1274
     30 H12        -1.5075   -3.8814    2.6331 H         1 <0>         0.1245
     31 H13        -0.4449   -2.0049    1.5317 H         1 <0>         0.4019
     32 H14        -4.5579   -6.8136    0.0824 H         1 <0>         0.3835
     33 H15         3.8951    2.3001    0.8601 H         1 <0>         0.3929
@<TRIPOS>BOND
     1    1    6 ar
     2    1    2 ar
     3    1   19 1
     4    2    3 ar
     5    2   20 1
     6    3    4 ar
     7    3   18 1
     8    4    5 ar
     9    4   21 1
    10    5    6 ar
    11    5   22 1
    12    6    7 1
    13    7   16 1
    14    7    8 1
    15    7   23 1
    16    8    9 1
    17    8   24 1
    18    8   25 1
    19    9   10 1
    20    9   26 1
    21    9   27 1
    22   10   15 ar
    23   10   11 ar
    24   11   12 ar
    25   11   28 1
    26   12   13 ar
    27   12   17 1
    28   13   14 ar
    29   13   29 1
    30   14   15 ar
    31   14   30 1
    32   15   16 1
    33   16   31 1
    34   17   32 1
    35   18   33 1
