@<TRIPOS>MOLECULE
CHEMBL347560
   74    77     0     0     0
SMALL
USER_CHARGES

@<TRIPOS>ATOM
      1 C1         -0.0178    1.4608    0.0101 C.3       1 <0>         0.0583
      2 N1          0.0021   -0.0041    0.0020 N.pl3     1 <0>        -0.5553
      3 C2          0.0241   -0.7433    1.2666 C.3       1 <0>         0.1167
      4 C3         -1.4105   -1.0203    1.7205 C.3       1 <0>        -0.1306
      5 C4         -1.3875   -1.7923    3.0413 C.3       1 <0>        -0.0762
      6 C5         -2.8005   -2.0651    3.4884 C.ar      1 <0>        -0.0852
      7 C6         -3.4587   -1.1539    4.2931 C.ar      1 <0>        -0.1035
      8 C7         -4.7547   -1.4036    4.7034 C.ar      1 <0>        -0.1069
      9 C8         -5.3933   -2.5657    4.3087 C.ar      1 <0>        -0.0354
     10 C9         -4.7340   -3.4773    3.5034 C.ar      1 <0>        -0.1081
     11 C10        -3.4400   -3.2238    3.0890 C.ar      1 <0>        -0.1034
     12 Cl1        -7.0209   -2.8802    4.8242 Cl        1 <0>        -0.0623
     13 C11         0.0000   -0.6876   -1.1969 C.ar      1 <0>         0.6836
     14 N2         -0.0145   -0.0167   -2.3446 N.ar      1 <0>        -0.6390
     15 C12        -0.0165   -0.6751   -3.4993 C.ar      1 <0>         0.6936
     16 N3         -0.0039   -2.0045   -3.5066 N.ar      1 <0>        -0.6205
     17 C13         0.0110   -2.6753   -2.3592 C.ar      1 <0>         0.6734
     18 N4          0.0180   -2.0167   -1.2042 N.ar      1 <0>        -0.6151
     19 N5          0.0236   -4.0553   -2.3667 N.pl3     1 <0>        -0.5245
     20 C14         0.0341   -4.8170   -1.1086 C.3       1 <0>         0.1160
     21 C15        -1.0888   -5.8585   -1.1607 C.3       1 <0>         0.0392
     22 N6         -0.9453   -6.6680   -2.3781 N.3       1 <0>        -0.5291
     23 C16        -1.0957   -5.8453   -3.5858 C.3       1 <0>         0.0346
     24 C17         0.0206   -4.8033   -3.6331 C.3       1 <0>         0.1161
     25 C18        -1.8971   -7.7870   -2.3815 C.3       1 <0>         0.0547
     26 C19        -1.5566   -8.7427   -3.5267 C.3       1 <0>         0.0778
     27 O1         -0.2779   -9.3347   -3.2889 O.3       1 <0>        -0.5604
     28 N7         -0.0320    0.0214   -4.6907 N.pl3     1 <0>        -0.6645
     29 C20        -0.0463    1.4863   -4.6827 C.3       1 <0>         0.0946
     30 C21        -0.0619    2.0041   -6.1224 C.3       1 <0>        -0.0846
     31 C22        -0.0766    3.5110   -6.1141 C.ar      1 <0>        -0.1113
     32 C23        -1.2813    4.1893   -6.0959 C.ar      1 <0>        -0.0937
     33 C24        -1.2975    5.5706   -6.0887 C.ar      1 <0>        -0.1430
     34 C25        -0.1036    6.2772   -6.0994 C.ar      1 <0>         0.1187
     35 C26         1.1038    5.5943   -6.1173 C.ar      1 <0>        -0.1427
     36 C27         1.1146    4.2128   -6.1191 C.ar      1 <0>        -0.0933
     37 O2         -0.1169    7.6362   -6.0929 O.3       1 <0>        -0.4971
     38 H1          1.0048    1.8381    0.0023 H         1 <0>         0.0891
     39 H2         -0.5450    1.8219   -0.8730 H         1 <0>         0.0720
     40 H3         -0.5280    1.8123    0.9069 H         1 <0>         0.1124
     41 H4          0.5496   -1.6879    1.1262 H         1 <0>         0.1074
     42 H5          0.5371   -0.1514    2.0246 H         1 <0>         0.1040
     43 H6         -1.9359   -0.0757    1.8610 H         1 <0>         0.0715
     44 H7         -1.9235   -1.6122    0.9626 H         1 <0>         0.0724
     45 H8         -0.8620   -2.7369    2.9008 H         1 <0>         0.0818
     46 H9         -0.8745   -1.2004    3.7993 H         1 <0>         0.0813
     47 H10        -2.9600   -0.2469    4.6014 H         1 <0>         0.1316
     48 H11        -5.2687   -0.6918    5.3324 H         1 <0>         0.1356
     49 H12        -5.2319   -4.3848    3.1952 H         1 <0>         0.1342
     50 H13        -2.9270   -3.9331    2.4564 H         1 <0>         0.1297
     51 H14         0.9944   -5.3194   -0.9927 H         1 <0>         0.0980
     52 H15        -0.1322   -4.1410   -0.2699 H         1 <0>         0.1104
     53 H16        -1.0266   -6.5045   -0.2850 H         1 <0>         0.1020
     54 H17        -2.0541   -5.3524   -1.1721 H         1 <0>         0.0420
     55 H18        -1.0386   -6.4818   -4.4689 H         1 <0>         0.1022
     56 H19        -2.0609   -5.3394   -3.5634 H         1 <0>         0.0416
     57 H20        -0.1545   -4.1183   -4.4626 H         1 <0>         0.1104
     58 H21         0.9797   -5.3044   -3.7646 H         1 <0>         0.0978
     59 H22        -1.8346   -8.3199   -1.4327 H         1 <0>         0.0902
     60 H23        -2.9083   -7.4034   -2.5168 H         1 <0>         0.0522
     61 H24        -2.3138   -9.5246   -3.5848 H         1 <0>         0.0538
     62 H25        -1.5321   -8.1901   -4.4660 H         1 <0>         0.0453
     63 H26         0.0031   -9.9535   -3.9767 H         1 <0>         0.3802
     64 H27        -0.0334   -0.4590   -5.5334 H         1 <0>         0.4438
     65 H28        -0.9360    1.8381   -4.1604 H         1 <0>         0.0863
     66 H29         0.8438    1.8556   -4.1734 H         1 <0>         0.0873
     67 H30         0.8278    1.6523   -6.6447 H         1 <0>         0.0934
     68 H31        -0.9520    1.6348   -6.6317 H         1 <0>         0.0930
     69 H32        -2.2104    3.6388   -6.0876 H         1 <0>         0.1284
     70 H33        -2.2387    6.1000   -6.0752 H         1 <0>         0.1338
     71 H34         2.0345    6.1421   -6.1256 H         1 <0>         0.1341
     72 H35         2.0544    3.6807   -6.1285 H         1 <0>         0.1289
     73 H36        -0.1104    8.0253   -5.2077 H         1 <0>         0.3964
     74 H37        -0.0240    0.9532   -2.3393 H         1 <0>         0.4338
@<TRIPOS>BOND
     1    1    2 1
     2    1   38 1
     3    1   39 1
     4    1   40 1
     5    2    3 1
     6    2   13 1
     7    3    4 1
     8    3   41 1
     9    3   42 1
    10    4    5 1
    11    4   43 1
    12    4   44 1
    13    5    6 1
    14    5   45 1
    15    5   46 1
    16    6   11 ar
    17    6    7 ar
    18    7    8 ar
    19    7   47 1
    20    8    9 ar
    21    8   48 1
    22    9   10 ar
    23    9   12 1
    24   10   11 ar
    25   10   49 1
    26   11   50 1
    27   13   18 ar
    28   13   14 ar
    29   14   15 ar
    30   14   74 1
    31   15   16 ar
    32   15   28 1
    33   16   17 ar
    34   17   18 ar
    35   17   19 1
    36   19   24 1
    37   19   20 1
    38   20   21 1
    39   20   51 1
    40   20   52 1
    41   21   22 1
    42   21   53 1
    43   21   54 1
    44   22   23 1
    45   22   25 1
    46   23   24 1
    47   23   55 1
    48   23   56 1
    49   24   57 1
    50   24   58 1
    51   25   26 1
    52   25   59 1
    53   25   60 1
    54   26   27 1
    55   26   61 1
    56   26   62 1
    57   27   63 1
    58   28   29 1
    59   28   64 1
    60   29   30 1
    61   29   65 1
    62   29   66 1
    63   30   31 1
    64   30   67 1
    65   30   68 1
    66   31   36 ar
    67   31   32 ar
    68   32   33 ar
    69   32   69 1
    70   33   34 ar
    71   33   70 1
    72   34   35 ar
    73   34   37 1
    74   35   36 ar
    75   35   71 1
    76   36   72 1
    77   37   73 1
