@<TRIPOS>MOLECULE
CHEMBL38171
   81    86     0     0     0
SMALL
USER_CHARGES

@<TRIPOS>ATOM
      1 C1         -1.0910    0.5792    0.2492 C.3       1 <0>        -0.1260
      2 C2         -0.5959   -0.8661    0.1502 C.3       1 <0>        -0.0408
      3 C3         -1.7456   -1.8579   -0.0376 C.3       1 <0>        -0.1094
      4 C4         -2.5836   -1.9742    1.2288 C.3       1 <0>        -0.1102
      5 C5         -1.7280   -2.4627    2.3887 C.3       1 <0>        -0.0298
      6 C6         -1.2976   -3.8892    2.2163 C.ar      1 <0>        -0.0973
      7 C7         -2.1174   -4.7597    1.5135 C.ar      1 <0>        -0.0747
      8 C8         -1.7631   -6.0828    1.3478 C.ar      1 <0>        -0.2055
      9 C9         -0.5780   -6.5501    1.8967 C.ar      1 <0>         0.1299
     10 C10         0.2425   -5.6811    2.5935 C.ar      1 <0>        -0.1576
     11 C11        -0.1084   -4.3450    2.7465 C.ar      1 <0>        -0.0274
     12 C12         0.8517   -3.4585    3.4868 C.3       1 <0>        -0.0824
     13 C13         0.3099   -2.0665    3.7609 C.3       1 <0>        -0.0609
     14 H1         -0.3159   -2.1066    4.6678 H         1 <0>         0.0957
     15 C14        -0.5398   -1.5412    2.6056 C.3       1 <0>        -0.0451
     16 C15         0.2630   -1.2629    1.3661 C.3       1 <0>        -0.0668
     17 C16         1.0982   -2.4438    0.8512 C.3       1 <0>        -0.1203
     18 C17         1.4727   -2.0150   -0.5898 C.3       1 <0>        -0.1610
     19 C18         0.3609   -1.0591   -1.0558 C.3       1 <0>         0.1038
     20 H2         -0.1809   -1.4967   -1.8957 H         1 <0>         0.0561
     21 O1          0.9225    0.1974   -1.4421 O.3       1 <0>        -0.5614
     22 S1          1.6899   -0.9263    4.0784 S.3       1 <0>        -0.0871
     23 C19         2.3269   -1.4512    5.6351 C.ar      1 <0>        -0.1051
     24 C20         1.6664   -2.4347    6.3606 C.ar      1 <0>        -0.0967
     25 C21         2.1666   -2.8453    7.5805 C.ar      1 <0>        -0.1188
     26 C22         3.3280   -2.2761    8.0816 C.ar      1 <0>         0.1042
     27 C23         3.9884   -1.2940    7.3580 C.ar      1 <0>        -0.1806
     28 C24         3.4932   -0.8859    6.1353 C.ar      1 <0>        -0.0602
     29 O2          3.8195   -2.6809    9.2834 O.3       1 <0>        -0.3288
     30 C25         5.0193   -2.0522    9.7387 C.3       1 <0>         0.0255
     31 C26         5.4154   -2.6331   11.0976 C.3       1 <0>        -0.0005
     32 N1          5.6881   -4.0695   10.9554 N.4       1 <0>        -0.3839
     33 C27         5.9191   -4.6557   12.2811 C.3       1 <0>        -0.0071
     34 C28         6.1234   -6.1662   12.1465 C.3       1 <0>        -0.1467
     35 C29         7.3358   -6.4339   11.2500 C.3       1 <0>        -0.1389
     36 C30         7.1161   -5.7550    9.8950 C.3       1 <0>        -0.1454
     37 C31         6.8750   -4.2597   10.1130 C.3       1 <0>        -0.0129
     38 O3         -0.2256   -7.8547    1.7515 O.3       1 <0>        -0.3190
     39 C32        -1.1237   -8.6918    1.0202 C.3       1 <0>         0.0267
     40 H3         -0.2361    1.2536    0.2981 H         1 <0>         0.0660
     41 H4         -1.6924    0.8181   -0.6279 H         1 <0>         0.0556
     42 H5         -1.6970    0.6949    1.1478 H         1 <0>         0.0514
     43 H6         -2.3820   -1.5144   -0.8574 H         1 <0>         0.0644
     44 H7         -1.3411   -2.8371   -0.2970 H         1 <0>         0.0673
     45 H8         -3.0113   -0.9998    1.4795 H         1 <0>         0.0709
     46 H9         -3.4093   -2.6680    1.0585 H         1 <0>         0.0713
     47 H10        -2.3491   -2.4162    3.2974 H         1 <0>         0.0778
     48 H11        -3.0463   -4.4100    1.0887 H         1 <0>         0.1283
     49 H12        -2.4046   -6.7495    0.7910 H         1 <0>         0.1290
     50 H13         1.1646   -6.0427    3.0244 H         1 <0>         0.1257
     51 H14         1.0776   -3.9366    4.4532 H         1 <0>         0.0736
     52 H15         1.7918   -3.3955    2.9402 H         1 <0>         0.0986
     53 H16        -0.9586   -0.5649    2.9384 H         1 <0>         0.0807
     54 H17         0.9448   -0.4273    1.5747 H         1 <0>         0.0763
     55 H18         2.0074   -2.5648    1.4416 H         1 <0>         0.0689
     56 H19         0.5192   -3.3634    0.8274 H         1 <0>         0.0806
     57 H20         2.4333   -1.5012   -0.5855 H         1 <0>         0.0727
     58 H21         1.5158   -2.8889   -1.2382 H         1 <0>         0.0654
     59 H22         1.5303    0.1427   -2.1922 H         1 <0>         0.3756
     60 H23         0.7619   -2.8778    5.9709 H         1 <0>         0.1374
     61 H24         1.6530   -3.6096    8.1449 H         1 <0>         0.1350
     62 H25         4.8925   -0.8512    7.7493 H         1 <0>         0.1316
     63 H26         4.0100   -0.1244    5.5700 H         1 <0>         0.1361
     64 H27         5.8188   -2.2316    9.0198 H         1 <0>         0.0864
     65 H28         4.8528   -0.9795    9.8366 H         1 <0>         0.1093
     66 H29         6.3099   -2.1278   11.4619 H         1 <0>         0.1488
     67 H30         4.6009   -2.4863   11.8068 H         1 <0>         0.1421
     68 H31         6.8075   -4.2076   12.7263 H         1 <0>         0.1291
     69 H32         5.0568   -4.4616   12.9190 H         1 <0>         0.1309
     70 H33         6.2966   -6.5993   13.1317 H         1 <0>         0.1129
     71 H34         5.2355   -6.6154   11.7017 H         1 <0>         0.0878
     72 H35         8.2326   -6.0294   11.7192 H         1 <0>         0.0821
     73 H36         7.4517   -7.5080   11.1049 H         1 <0>         0.0946
     74 H37         7.9988   -5.8941    9.2708 H         1 <0>         0.1122
     75 H38         6.2487   -6.1956    9.4034 H         1 <0>         0.0878
     76 H39         6.7184   -3.7732    9.1503 H         1 <0>         0.1274
     77 H40         7.7429   -3.8200   10.6044 H         1 <0>         0.1301
     78 H41        -1.2380   -8.3048    0.0077 H         1 <0>         0.0568
     79 H42        -0.7239   -9.7050    0.9790 H         1 <0>         0.1017
     80 H43        -2.0942   -8.7040    1.5163 H         1 <0>         0.0565
     81 H44         4.8951   -4.5203   10.5241 H         1 <0>         0.4296
@<TRIPOS>BOND
     1    1    2 1
     2    1   40 1
     3    1   41 1
     4    1   42 1
     5    2   16 1
     6    2   19 1
     7    2    3 1
     8    3    4 1
     9    3   43 1
    10    3   44 1
    11    4    5 1
    12    4   45 1
    13    4   46 1
    14    5   15 1
    15    5    6 1
    16    5   47 1
    17    6   11 ar
    18    6    7 ar
    19    7    8 ar
    20    7   48 1
    21    8    9 ar
    22    8   49 1
    23    9   10 ar
    24    9   38 1
    25   10   11 ar
    26   10   50 1
    27   11   12 1
    28   12   13 1
    29   12   51 1
    30   12   52 1
    31   13   14 1
    32   13   15 1
    33   13   22 1
    34   15   16 1
    35   15   53 1
    36   16   17 1
    37   16   54 1
    38   17   18 1
    39   17   55 1
    40   17   56 1
    41   18   19 1
    42   18   57 1
    43   18   58 1
    44   19   20 1
    45   19   21 1
    46   21   59 1
    47   22   23 1
    48   23   28 ar
    49   23   24 ar
    50   24   25 ar
    51   24   60 1
    52   25   26 ar
    53   25   61 1
    54   26   27 ar
    55   26   29 1
    56   27   28 ar
    57   27   62 1
    58   28   63 1
    59   29   30 1
    60   30   31 1
    61   30   64 1
    62   30   65 1
    63   31   32 1
    64   31   66 1
    65   31   67 1
    66   32   37 1
    67   32   33 1
    68   32   81 1
    69   33   34 1
    70   33   68 1
    71   33   69 1
    72   34   35 1
    73   34   70 1
    74   34   71 1
    75   35   36 1
    76   35   72 1
    77   35   73 1
    78   36   37 1
    79   36   74 1
    80   36   75 1
    81   37   76 1
    82   37   77 1
    83   38   39 1
    84   39   78 1
    85   39   79 1
    86   39   80 1
