@<TRIPOS>MOLECULE
CHEMBL213838
   71    76     0     0     0
SMALL
USER_CHARGES

@<TRIPOS>ATOM
      1 C1         -0.1802    1.3135    0.8480 C.ar      1 <0>        -0.1182
      2 C2          1.0008    2.0237    0.7389 C.ar      1 <0>        -0.1151
      3 C3          2.2048    1.3517    0.6409 C.ar      1 <0>        -0.1170
      4 C4          2.2280   -0.0304    0.6525 C.ar      1 <0>        -0.0826
      5 C5          1.0471   -0.7405    0.7626 C.ar      1 <0>        -0.1167
      6 C6         -0.1570   -0.0686    0.8592 C.ar      1 <0>        -0.1148
      7 C7          3.5406   -0.7629    0.5447 C.3       1 <0>        -0.0612
      8 C8          4.1107   -0.9966    1.9451 C.3       1 <0>        -0.0307
      9 C9          3.1550   -1.8257    2.8048 C.3       1 <0>        -0.1089
     10 C10         2.9867   -3.2059    2.1617 C.3       1 <0>        -0.1673
     11 C11         4.3222   -3.8874    2.0217 C.2       1 <0>         0.3982
     12 O1          4.3832   -5.0999    2.0162 O.2       1 <0>        -0.4521
     13 C12         5.5489   -3.0958    1.8926 C.2       1 <0>        -0.1627
     14 C13         5.4415   -1.7361    1.8907 C.2       1 <0>         0.0348
     15 C14         6.4769   -0.7200    1.8839 C.ar      1 <0>        -0.1051
     16 C15         7.8197   -0.8087    1.4751 C.ar      1 <0>        -0.0638
     17 C16         8.5927    0.3156    1.6166 C.ar      1 <0>        -0.1605
     18 C17         8.0836    1.4956    2.1402 C.ar      1 <0>         0.1345
     19 C18         6.7483    1.6083    2.5365 C.ar      1 <0>        -0.1351
     20 C19         5.9529    0.4928    2.3866 C.ar      1 <0>        -0.0445
     21 C20         4.4787    0.3326    2.6331 C.3       1 <0>        -0.0866
     22 O2          8.9042    2.5687    2.2704 O.3       1 <0>        -0.4994
     23 C21         6.8702   -3.7549    1.7668 C.ar      1 <0>        -0.0410
     24 C22         7.6129   -3.6139    0.5948 C.ar      1 <0>        -0.0691
     25 C23         8.8420   -4.2286    0.4811 C.ar      1 <0>        -0.1415
     26 C24         9.3404   -4.9872    1.5318 C.ar      1 <0>         0.1138
     27 C25         8.6037   -5.1297    2.6999 C.ar      1 <0>        -0.1978
     28 C26         7.3764   -4.5130    2.8225 C.ar      1 <0>        -0.0516
     29 O3         10.5518   -5.5921    1.4163 O.3       1 <0>        -0.3287
     30 C27        11.0041   -6.3573    2.5351 C.3       1 <0>         0.0248
     31 C28        12.3761   -6.9574    2.2214 C.3       1 <0>         0.0001
     32 N1         13.3534   -5.8760    2.0391 N.4       1 <0>        -0.3868
     33 C29        14.6350   -6.4431    1.5973 C.3       1 <0>        -0.0438
     34 C30        15.6515   -5.3144    1.4079 C.3       1 <0>         0.0355
     35 O4         15.7910   -4.5944    2.6359 O.3       1 <0>        -0.3558
     36 C31        14.5635   -4.0425    3.1201 C.3       1 <0>         0.0373
     37 C32        13.5450   -5.1688    3.3128 C.3       1 <0>        -0.0502
     38 H1         -1.1205    1.8385    0.9291 H         1 <0>         0.1232
     39 H2          0.9827    3.1035    0.7298 H         1 <0>         0.1233
     40 H3          3.1274    1.9066    0.5549 H         1 <0>         0.1211
     41 H4          1.0652   -1.8203    0.7713 H         1 <0>         0.1215
     42 H5         -1.0797   -0.6234    0.9448 H         1 <0>         0.1238
     43 H6          3.3818   -1.7223    0.0522 H         1 <0>         0.0804
     44 H7          4.2425   -0.1669   -0.0386 H         1 <0>         0.0808
     45 H8          3.5685   -1.9375    3.8072 H         1 <0>         0.0764
     46 H9          2.1871   -1.3275    2.8597 H         1 <0>         0.0919
     47 H10         2.3339   -3.8169    2.7852 H         1 <0>         0.1032
     48 H11         2.5353   -3.0917    1.1761 H         1 <0>         0.1062
     49 H12         8.2249   -1.7231    1.0675 H         1 <0>         0.1415
     50 H13         9.6282    0.2814    1.3117 H         1 <0>         0.1280
     51 H14         6.3569    2.5291    2.9432 H         1 <0>         0.1432
     52 H15         3.9265    1.1583    2.1844 H         1 <0>         0.1005
     53 H16         4.2763    0.2756    3.7026 H         1 <0>         0.0958
     54 H17         8.9228    3.1460    1.4949 H         1 <0>         0.3974
     55 H18         7.2257   -3.0242   -0.2230 H         1 <0>         0.1374
     56 H19         9.4175   -4.1202   -0.4263 H         1 <0>         0.1362
     57 H20         8.9941   -5.7208    3.5151 H         1 <0>         0.1291
     58 H21         6.8060   -4.6202    3.7333 H         1 <0>         0.1295
     59 H22        11.0814   -5.7114    3.4097 H         1 <0>         0.0864
     60 H23        10.2944   -7.1595    2.7375 H         1 <0>         0.1118
     61 H24        12.6907   -7.5961    3.0468 H         1 <0>         0.1507
     62 H25        12.3138   -7.5486    1.3078 H         1 <0>         0.1450
     63 H26        15.0025   -7.1408    2.3498 H         1 <0>         0.1403
     64 H27        14.4940   -6.9678    0.6524 H         1 <0>         0.1441
     65 H28        16.6149   -5.7364    1.1219 H         1 <0>         0.1433
     66 H29        15.3033   -4.6382    0.6271 H         1 <0>         0.0817
     67 H30        14.7396   -3.5439    4.0733 H         1 <0>         0.1427
     68 H31        14.1781   -3.3228    2.3979 H         1 <0>         0.0817
     69 H32        12.5949   -4.7476    3.6413 H         1 <0>         0.1400
     70 H33        13.9129   -5.8670    4.0646 H         1 <0>         0.1414
     71 H34        13.0138   -5.2293    1.3430 H         1 <0>         0.4300
@<TRIPOS>BOND
     1    1    6 ar
     2    1    2 ar
     3    1   38 1
     4    2    3 ar
     5    2   39 1
     6    3    4 ar
     7    3   40 1
     8    4    5 ar
     9    4    7 1
    10    5    6 ar
    11    5   41 1
    12    6   42 1
    13    7    8 1
    14    7   43 1
    15    7   44 1
    16    8   14 1
    17    8   21 1
    18    8    9 1
    19    9   10 1
    20    9   45 1
    21    9   46 1
    22   10   11 1
    23   10   47 1
    24   10   48 1
    25   11   12 2
    26   11   13 1
    27   13   14 2
    28   13   23 1
    29   14   15 1
    30   15   20 ar
    31   15   16 ar
    32   16   17 ar
    33   16   49 1
    34   17   18 ar
    35   17   50 1
    36   18   19 ar
    37   18   22 1
    38   19   20 ar
    39   19   51 1
    40   20   21 1
    41   21   52 1
    42   21   53 1
    43   22   54 1
    44   23   28 ar
    45   23   24 ar
    46   24   25 ar
    47   24   55 1
    48   25   26 ar
    49   25   56 1
    50   26   27 ar
    51   26   29 1
    52   27   28 ar
    53   27   57 1
    54   28   58 1
    55   29   30 1
    56   30   31 1
    57   30   59 1
    58   30   60 1
    59   31   32 1
    60   31   61 1
    61   31   62 1
    62   32   37 1
    63   32   33 1
    64   32   71 1
    65   33   34 1
    66   33   63 1
    67   33   64 1
    68   34   35 1
    69   34   65 1
    70   34   66 1
    71   35   36 1
    72   36   37 1
    73   36   67 1
    74   36   68 1
    75   37   69 1
    76   37   70 1
