@<TRIPOS>MOLECULE
CHEMBL1213617
   27    28     0     0     0
SMALL
USER_CHARGES

@<TRIPOS>ATOM
      1 C1         -0.0167    1.3830    0.0096 C.ar      1 <0>        -0.1425
      2 C2          1.1722    2.0816    0.0020 C.ar      1 <0>        -0.0905
      3 C3          2.3867    1.4090   -0.0094 C.ar      1 <0>        -0.1097
      4 C4          2.4098    0.0316   -0.0071 C.ar      1 <0>        -0.0525
      5 C5          1.2137   -0.6738   -0.0073 C.ar      1 <0>        -0.1440
      6 C6          0.0021   -0.0041    0.0020 C.ar      1 <0>         0.1140
      7 O1         -1.1637   -0.7025    0.0041 O.3       1 <0>        -0.4983
      8 C7          3.6884   -0.7640    0.0117 C.3       1 <0>        -0.0995
      9 C8          4.8645    0.0846   -0.4689 C.3       1 <0>         0.1117
     10 N1          4.8068    1.3776    0.2327 N.am      1 <0>        -0.5877
     11 C9          3.6476    2.2364   -0.0318 C.3       1 <0>         0.1358
     12 C10         5.7801    1.7568    1.0843 C.2       1 <0>         0.4896
     13 O2          6.7279    1.0273    1.2856 O.2       1 <0>        -0.4728
     14 C11         5.6907    3.0872    1.7866 C.3       1 <0>         0.4514
     15 F1          6.8082    3.2551    2.6114 F         1 <0>        -0.1492
     16 F2          5.6534    4.1140    0.8371 F         1 <0>        -0.1655
     17 F3          4.5277    3.1274    2.5630 F         1 <0>        -0.1641
     18 H1         -0.9576    1.9130    0.0260 H         1 <0>         0.1339
     19 H2          1.1584    3.1615    0.0046 H         1 <0>         0.1325
     20 H3          1.2288   -1.7536   -0.0147 H         1 <0>         0.1316
     21 H4         -1.5056   -0.8998   -0.8787 H         1 <0>         0.3937
     22 H5          3.8839   -1.1044    1.0286 H         1 <0>         0.0877
     23 H6          3.5811   -1.6304   -0.6410 H         1 <0>         0.0973
     24 H7          5.8024   -0.4197   -0.2362 H         1 <0>         0.1075
     25 H8          4.7882    0.2449   -1.5443 H         1 <0>         0.0902
     26 H9          3.7578    2.7031   -1.0107 H         1 <0>         0.0994
     27 H10         3.5873    3.0102    0.7335 H         1 <0>         0.1000
@<TRIPOS>BOND
     1    1    6 ar
     2    1    2 ar
     3    1   18 1
     4    2    3 ar
     5    2   19 1
     6    3   11 1
     7    3    4 ar
     8    4    5 ar
     9    4    8 1
    10    5    6 ar
    11    5   20 1
    12    6    7 1
    13    7   21 1
    14    8    9 1
    15    8   22 1
    16    8   23 1
    17    9   10 1
    18    9   24 1
    19    9   25 1
    20   10   11 1
    21   10   12 am
    22   11   26 1
    23   11   27 1
    24   12   13 2
    25   12   14 1
    26   14   15 1
    27   14   16 1
    28   14   17 1
