@<TRIPOS>MOLECULE
CHEMBL373743
   39    42     0     0     0
SMALL
USER_CHARGES

@<TRIPOS>ATOM
      1 C1         -0.0168    1.3848    0.0097 C.ar      1 <0>        -0.1321
      2 C2          1.1485    2.0961    0.0023 C.ar      1 <0>        -0.0493
      3 C3          2.3734    1.4240   -0.0129 C.ar      1 <0>        -0.1409
      4 C4          2.3997    0.0180   -0.0207 C.ar      1 <0>         0.0977
      5 C5          1.1976   -0.6896   -0.0130 C.ar      1 <0>         0.0740
      6 C6          0.0021   -0.0041    0.0020 C.ar      1 <0>        -0.1016
      7 F1          1.2053   -2.0405   -0.0207 F         1 <0>        -0.1377
      8 N1          3.7194   -0.3569   -0.0360 N.pl3     1 <0>        -0.3836
      9 N2          4.5239    0.7871   -0.0380 N.2       1 <0>        -0.2223
     10 C7          3.7733    1.8618   -0.0247 C.2       1 <0>         0.1332
     11 C8          4.2523    3.2645   -0.0228 C.ar      1 <0>        -0.0266
     12 C9          3.5327    4.2495   -0.6985 C.ar      1 <0>        -0.0772
     13 C10         3.9811    5.5535   -0.6948 C.ar      1 <0>        -0.1437
     14 C11         5.1476    5.8862   -0.0193 C.ar      1 <0>         0.1181
     15 C12         5.8666    4.9079    0.6540 C.ar      1 <0>        -0.1445
     16 C13         5.4204    3.6031    0.6594 C.ar      1 <0>        -0.0702
     17 O1          5.5867    7.1722   -0.0176 O.3       1 <0>        -0.4987
     18 C14         4.2087   -1.7377   -0.0475 C.3       1 <0>         0.1576
     19 C15         5.1384   -1.9790    1.1597 C.3       1 <0>        -0.1324
     20 C16         6.2423   -2.9150    0.6079 C.3       1 <0>        -0.1222
     21 C17         6.4666   -2.3713   -0.8250 C.3       1 <0>        -0.1209
     22 C18         5.0532   -1.9871   -1.3094 C.3       1 <0>        -0.1332
     23 H1         -0.9620    1.9069    0.0260 H         1 <0>         0.1399
     24 H2          1.1237    3.1758    0.0080 H         1 <0>         0.1355
     25 H3         -0.9287   -0.5518    0.0083 H         1 <0>         0.1444
     26 H4          2.6255    3.9912   -1.2244 H         1 <0>         0.1331
     27 H5          3.4245    6.3168   -1.2182 H         1 <0>         0.1357
     28 H6          6.7737    5.1699    1.1782 H         1 <0>         0.1345
     29 H7          5.9774    2.8434    1.1877 H         1 <0>         0.1322
     30 H8          5.2448    7.7036    0.7143 H         1 <0>         0.3941
     31 H9          3.3686   -2.4315   -0.0173 H         1 <0>         0.1105
     32 H10         5.5712   -1.0390    1.5018 H         1 <0>         0.0822
     33 H11         4.5943   -2.4664    1.9687 H         1 <0>         0.0734
     34 H12         7.1531   -2.8294    1.2005 H         1 <0>         0.0743
     35 H13         5.8944   -3.9476    0.5792 H         1 <0>         0.0719
     36 H14         7.1139   -1.4946   -0.8034 H         1 <0>         0.0711
     37 H15         6.8918   -3.1450   -1.4644 H         1 <0>         0.0710
     38 H16         4.6234   -2.8026   -1.8912 H         1 <0>         0.0765
     39 H17         5.0990   -1.0808   -1.9132 H         1 <0>         0.0761
@<TRIPOS>BOND
     1    1    6 ar
     2    1    2 ar
     3    1   23 1
     4    2    3 ar
     5    2   24 1
     6    3   10 1
     7    3    4 ar
     8    4    5 ar
     9    4    8 1
    10    5    6 ar
    11    5    7 1
    12    6   25 1
    13    8    9 1
    14    8   18 1
    15    9   10 2
    16   10   11 1
    17   11   16 ar
    18   11   12 ar
    19   12   13 ar
    20   12   26 1
    21   13   14 ar
    22   13   27 1
    23   14   15 ar
    24   14   17 1
    25   15   16 ar
    26   15   28 1
    27   16   29 1
    28   17   30 1
    29   18   22 1
    30   18   19 1
    31   18   31 1
    32   19   20 1
    33   19   32 1
    34   19   33 1
    35   20   21 1
    36   20   34 1
    37   20   35 1
    38   21   22 1
    39   21   36 1
    40   21   37 1
    41   22   38 1
    42   22   39 1
