@<TRIPOS>MOLECULE
CHEMBL31127
   42    45     0     0     0
SMALL
USER_CHARGES

@<TRIPOS>ATOM
      1 C1         -0.0167    1.3784    0.0096 C.ar      1 <0>        -0.0807
      2 C2          1.1695    2.0865    0.0021 C.ar      1 <0>        -0.1425
      3 C3          2.3802    1.4093   -0.0131 C.ar      1 <0>         0.1139
      4 C4          2.3963    0.0221   -0.0206 C.ar      1 <0>        -0.1443
      5 C5          1.2074   -0.6814   -0.0130 C.ar      1 <0>        -0.0941
      6 C6          0.0021   -0.0041    0.0020 C.ar      1 <0>        -0.0853
      7 C7         -1.2934   -0.7740    0.0107 C.3       1 <0>        -0.1178
      8 H1         -2.1359   -0.0825    0.0227 H         1 <0>         0.1260
      9 C8         -1.3743   -1.6755   -1.2300 C.3       1 <0>         0.1537
     10 H2         -2.3183   -2.2204   -1.2227 H         1 <0>         0.0953
     11 O1         -0.2890   -2.6025   -1.2119 O.3       1 <0>        -0.2963
     12 C9         -0.0943   -3.3535   -0.1030 C.ar      1 <0>         0.1946
     13 C10         0.6058   -4.5462   -0.1877 C.ar      1 <0>        -0.1910
     14 C11         0.8090   -5.3113    0.9514 C.ar      1 <0>         0.1820
     15 C12         0.3154   -4.8912    2.1842 C.ar      1 <0>        -0.1865
     16 C13        -0.3782   -3.7189    2.2848 C.ar      1 <0>        -0.0067
     17 C14        -0.5937   -2.9395    1.1446 C.ar      1 <0>        -0.2588
     18 C15        -1.3492   -1.6784    1.2290 C.2       1 <0>         0.4119
     19 O2         -1.9833   -1.3771    2.2187 O.2       1 <0>        -0.4317
     20 O3          1.4941   -6.4790    0.8639 O.3       1 <0>        -0.4930
     21 C16        -1.2923   -0.8282   -2.4735 C.ar      1 <0>        -0.1002
     22 C17        -0.0584   -0.4699   -2.9843 C.ar      1 <0>        -0.0631
     23 C18         0.0196    0.3071   -4.1238 C.ar      1 <0>        -0.1460
     24 C19        -1.1415    0.7276   -4.7561 C.ar      1 <0>         0.1178
     25 C20        -2.3784    0.3663   -4.2418 C.ar      1 <0>        -0.1457
     26 C21        -2.4509   -0.4151   -3.1049 C.ar      1 <0>        -0.0849
     27 O4         -1.0675    1.4924   -5.8770 O.3       1 <0>        -0.4992
     28 O5          3.5484    2.1036   -0.0209 O.3       1 <0>        -0.4988
     29 H3         -0.9594    1.9052    0.0259 H         1 <0>         0.1290
     30 H4          1.1543    3.1664    0.0076 H         1 <0>         0.1319
     31 H5          3.3375   -0.5074   -0.0328 H         1 <0>         0.1305
     32 H6          1.2194   -1.7613   -0.0189 H         1 <0>         0.1334
     33 H7          0.9923   -4.8800   -1.1393 H         1 <0>         0.1478
     34 H8          0.4821   -5.4947    3.0642 H         1 <0>         0.1405
     35 H9         -0.7595   -3.3955    3.2421 H         1 <0>         0.1427
     36 H10         2.4479   -6.3861    0.9935 H         1 <0>         0.4019
     37 H11         0.8452   -0.7974   -2.4917 H         1 <0>         0.1322
     38 H12         0.9836    0.5873   -4.5220 H         1 <0>         0.1308
     39 H13        -3.2837    0.6924   -4.7322 H         1 <0>         0.1334
     40 H14        -3.4134   -0.7003   -2.7067 H         1 <0>         0.1308
     41 H15        -1.0394    0.9838   -6.6990 H         1 <0>         0.3937
     42 H16         3.8951    2.3001    0.8601 H         1 <0>         0.3927
@<TRIPOS>BOND
     1    1    6 ar
     2    1    2 ar
     3    1   29 1
     4    2    3 ar
     5    2   30 1
     6    3    4 ar
     7    3   28 1
     8    4    5 ar
     9    4   31 1
    10    5    6 ar
    11    5   32 1
    12    6    7 1
    13    7    8 1
    14    7   18 1
    15    7    9 1
    16    9   10 1
    17    9   11 1
    18    9   21 1
    19   11   12 1
    20   12   17 ar
    21   12   13 ar
    22   13   14 ar
    23   13   33 1
    24   14   15 ar
    25   14   20 1
    26   15   16 ar
    27   15   34 1
    28   16   17 ar
    29   16   35 1
    30   17   18 1
    31   18   19 2
    32   20   36 1
    33   21   26 ar
    34   21   22 ar
    35   22   23 ar
    36   22   37 1
    37   23   24 ar
    38   23   38 1
    39   24   25 ar
    40   24   27 1
    41   25   26 ar
    42   25   39 1
    43   26   40 1
    44   27   41 1
    45   28   42 1
