@<TRIPOS>MOLECULE
CHEMBL11389
   58    60     0     0     0
SMALL
USER_CHARGES

@<TRIPOS>ATOM
      1 C1         -2.1364    1.0202    0.7048 C.3       1 <0>        -0.1467
      2 C2         -1.8280   -0.4765    0.7794 C.3       1 <0>        -0.0955
      3 C3         -0.7720   -0.7202    1.8266 C.2       1 <0>        -0.0478
      4 C4         -1.1310   -1.0382    3.0808 C.2       1 <0>        -0.0889
      5 C5         -2.5855   -1.2390    3.4203 C.3       1 <0>        -0.0412
      6 C6         -2.9177   -2.7076    3.3582 C.ar      1 <0>        -0.0787
      7 C7         -3.4638   -3.2447    2.2074 C.ar      1 <0>        -0.1155
      8 C8         -3.7685   -4.5918    2.1505 C.ar      1 <0>        -0.1145
      9 C9         -3.5268   -5.4019    3.2442 C.ar      1 <0>        -0.1193
     10 C10        -2.9799   -4.8650    4.3946 C.ar      1 <0>        -0.1176
     11 C11        -2.6712   -3.5187    4.4501 C.ar      1 <0>        -0.1135
     12 C12        -0.1029   -1.1909    4.1251 C.ar      1 <0>        -0.0341
     13 C13         0.8435   -2.2155    4.0327 C.ar      1 <0>        -0.0483
     14 C14         1.8030   -2.3543    5.0119 C.ar      1 <0>        -0.1180
     15 C15         1.8306   -1.4785    6.0896 C.ar      1 <0>         0.0753
     16 C16         0.8923   -0.4588    6.1857 C.ar      1 <0>        -0.2182
     17 C17        -0.0673   -0.3081    5.2083 C.ar      1 <0>        -0.0668
     18 O1          2.7780   -1.6198    7.0529 O.3       1 <0>        -0.2881
     19 C18         2.7201   -0.7150    8.1575 C.3       1 <0>         0.1632
     20 N1          3.3009    0.5757    7.7641 N.4       1 <0>        -0.4164
     21 C19         3.1290    1.5432    8.8560 C.3       1 <0>        -0.0471
     22 C20         4.7326    0.4033    7.4836 C.3       1 <0>        -0.0468
     23 C21         0.6547   -0.6094    1.4741 C.ar      1 <0>        -0.0468
     24 C22         1.4464    0.3848    2.0553 C.ar      1 <0>        -0.1048
     25 C23         2.7807    0.4824    1.7205 C.ar      1 <0>        -0.1217
     26 C24         3.3360   -0.4011    0.8117 C.ar      1 <0>        -0.1171
     27 C25         2.5582   -1.3879    0.2318 C.ar      1 <0>        -0.1137
     28 C26         1.2238   -1.5016    0.5615 C.ar      1 <0>        -0.1057
     29 H1         -1.2302    1.5652    0.4406 H         1 <0>         0.0566
     30 H2         -2.9002    1.1965   -0.0526 H         1 <0>         0.0634
     31 H3         -2.4987    1.3653    1.6732 H         1 <0>         0.0557
     32 H4         -2.7342   -1.0215    1.0436 H         1 <0>         0.0813
     33 H5         -1.4658   -0.8215   -0.1890 H         1 <0>         0.0759
     34 H6         -2.7789   -0.8649    4.4256 H         1 <0>         0.0795
     35 H7         -3.2037   -0.6961    2.7053 H         1 <0>         0.0905
     36 H8         -3.6526   -2.6117    1.3530 H         1 <0>         0.1221
     37 H9         -4.1958   -5.0113    1.2517 H         1 <0>         0.1241
     38 H10        -3.7656   -6.4543    3.2000 H         1 <0>         0.1230
     39 H11        -2.7914   -5.4979    5.2492 H         1 <0>         0.1208
     40 H12        -2.2404   -3.1000    5.3476 H         1 <0>         0.1144
     41 H13         0.8224   -2.8974    3.1955 H         1 <0>         0.1367
     42 H14         2.5347   -3.1457    4.9414 H         1 <0>         0.1389
     43 H15         0.9177    0.2198    7.0255 H         1 <0>         0.1173
     44 H16        -0.7935    0.4879    5.2814 H         1 <0>         0.1354
     45 H17         1.6815   -0.5706    8.4548 H         1 <0>         0.1347
     46 H18         3.2837   -1.1270    8.9946 H         1 <0>         0.1735
     47 H19         3.6327    1.1754    9.7500 H         1 <0>         0.1283
     48 H20         3.5599    2.5009    8.5642 H         1 <0>         0.1311
     49 H21         2.0667    1.6711    9.0642 H         1 <0>         0.1246
     50 H22         5.1822    1.3748    7.2788 H         1 <0>         0.1255
     51 H23         5.2204   -0.0480    8.3476 H         1 <0>         0.1255
     52 H24         4.8574   -0.2450    6.6162 H         1 <0>         0.1258
     53 H25         1.0142    1.0752    2.7645 H         1 <0>         0.1158
     54 H26         3.3937    1.2504    2.1686 H         1 <0>         0.1178
     55 H27         4.3815   -0.3199    0.5534 H         1 <0>         0.1219
     56 H28         2.9983   -2.0737   -0.4770 H         1 <0>         0.1255
     57 H29         0.6192   -2.2754    0.1120 H         1 <0>         0.1240
     58 H30         2.8347    0.9161    6.9366 H         1 <0>         0.4248
@<TRIPOS>BOND
     1    1    2 1
     2    1   29 1
     3    1   30 1
     4    1   31 1
     5    2    3 1
     6    2   32 1
     7    2   33 1
     8    3    4 2
     9    3   23 1
    10    4    5 1
    11    4   12 1
    12    5    6 1
    13    5   34 1
    14    5   35 1
    15    6   11 ar
    16    6    7 ar
    17    7    8 ar
    18    7   36 1
    19    8    9 ar
    20    8   37 1
    21    9   10 ar
    22    9   38 1
    23   10   11 ar
    24   10   39 1
    25   11   40 1
    26   12   17 ar
    27   12   13 ar
    28   13   14 ar
    29   13   41 1
    30   14   15 ar
    31   14   42 1
    32   15   16 ar
    33   15   18 1
    34   16   17 ar
    35   16   43 1
    36   17   44 1
    37   18   19 1
    38   19   20 1
    39   19   45 1
    40   19   46 1
    41   20   21 1
    42   20   22 1
    43   20   58 1
    44   21   47 1
    45   21   48 1
    46   21   49 1
    47   22   50 1
    48   22   51 1
    49   22   52 1
    50   23   28 ar
    51   23   24 ar
    52   24   25 ar
    53   24   53 1
    54   25   26 ar
    55   25   54 1
    56   26   27 ar
    57   26   55 1
    58   27   28 ar
    59   27   56 1
    60   28   57 1
