@<TRIPOS>MOLECULE
CHEMBL202472
   52    53     0     0     0
SMALL
USER_CHARGES

@<TRIPOS>ATOM
      1 C1         -0.4678    0.0013   -0.4859 C.3       1 <0>        -0.1520
      2 C2         -0.4259   -1.5050   -0.2208 C.3       1 <0>        -0.1451
      3 C3         -1.8413   -2.0786   -0.3129 C.3       1 <0>         0.1109
      4 N1         -1.8083   -3.5113   -0.0087 N.pl3     1 <0>        -0.9438
      5 C4         -1.4662   -3.9451    1.2742 C.ar      1 <0>         0.1383
      6 C5         -2.4263   -3.9760    2.2777 C.ar      1 <0>        -0.0567
      7 C6         -2.0848   -4.4059    3.5449 C.ar      1 <0>        -0.1144
      8 C7         -0.7887   -4.8050    3.8155 C.ar      1 <0>        -0.1026
      9 C8          0.1695   -4.7755    2.8188 C.ar      1 <0>        -0.1151
     10 C9         -0.1666   -4.3521    1.5480 C.ar      1 <0>        -0.0750
     11 C10         0.8768   -4.3263    0.4609 C.3       1 <0>        -0.1100
     12 C11         2.0666   -3.4788    0.9159 C.3       1 <0>        -0.1453
     13 C12        -3.8387   -3.5403    1.9840 C.3       1 <0>        -0.0920
     14 C13        -4.6377   -4.7291    1.4463 C.3       1 <0>        -0.1641
     15 S1         -2.1765   -4.6164   -1.1857 S.o2      1 <0>         2.6802
     16 O1         -2.5583   -5.8105   -0.5165 O.2       1 <0>        -0.9367
     17 O2         -3.0291   -3.9557   -2.1108 O.2       1 <0>        -0.9495
     18 C14        -0.6824   -4.9776   -2.0470 C.ar      1 <0>        -0.6909
     19 C15        -0.3744   -4.2963   -3.2104 C.ar      1 <0>        -0.0073
     20 C16         0.7960   -4.5778   -3.8877 C.ar      1 <0>        -0.1636
     21 C17         1.6632   -5.5448   -3.3996 C.ar      1 <0>         0.1682
     22 C18         1.3521   -6.2265   -2.2323 C.ar      1 <0>        -0.1341
     23 C19         0.1826   -5.9375   -1.5557 C.ar      1 <0>         0.0069
     24 C20         2.2917   -7.2774   -1.6995 C.3       1 <0>        -0.1168
     25 O3          2.8151   -5.8240   -4.0645 O.3       1 <0>        -0.4932
     26 H1          0.5405    0.4100   -0.4203 H         1 <0>         0.0586
     27 H2         -0.8697    0.1838   -1.4825 H         1 <0>         0.0576
     28 H3         -1.1042    0.4833    0.2563 H         1 <0>         0.0577
     29 H4          0.2105   -1.9869   -0.9630 H         1 <0>         0.0661
     30 H5         -0.0240   -1.6874    0.7759 H         1 <0>         0.0750
     31 H6         -2.4868   -1.5699    0.4030 H         1 <0>         0.0845
     32 H7         -2.2286   -1.9301   -1.3209 H         1 <0>         0.0983
     33 H8         -2.8307   -4.4301    4.3255 H         1 <0>         0.1274
     34 H9         -0.5241   -5.1401    4.8075 H         1 <0>         0.1264
     35 H10         1.1808   -5.0878    3.0335 H         1 <0>         0.1264
     36 H11         1.2123   -5.3427    0.2551 H         1 <0>         0.0820
     37 H12         0.4483   -3.8949   -0.4438 H         1 <0>         0.0800
     38 H13         1.7125   -2.5008    1.2420 H         1 <0>         0.0602
     39 H14         2.5719   -3.9767    1.7435 H         1 <0>         0.0578
     40 H15         2.7630   -3.3551    0.0866 H         1 <0>         0.0559
     41 H16        -4.3037   -3.1741    2.8993 H         1 <0>         0.0763
     42 H17        -3.8260   -2.7444    1.2393 H         1 <0>         0.0744
     43 H18        -4.1330   -5.1407    0.5722 H         1 <0>         0.0673
     44 H19        -4.7118   -5.4958    2.2176 H         1 <0>         0.0609
     45 H20        -5.6376   -4.3979    1.1660 H         1 <0>         0.0596
     46 H21        -1.0497   -3.5437   -3.5898 H         1 <0>         0.1446
     47 H22         1.0358   -4.0460   -4.7966 H         1 <0>         0.1406
     48 H23        -0.0581   -6.4650   -0.6446 H         1 <0>         0.1430
     49 H24         3.0086   -6.8138   -1.0217 H         1 <0>         0.0735
     50 H25         1.7218   -8.0356   -1.1624 H         1 <0>         0.0726
     51 H26         2.8242   -7.7428   -2.5288 H         1 <0>         0.0779
     52 H27         3.5702   -5.2884   -3.7850 H         1 <0>         0.3989
@<TRIPOS>BOND
     1    1    2 1
     2    1   26 1
     3    1   27 1
     4    1   28 1
     5    2    3 1
     6    2   29 1
     7    2   30 1
     8    3    4 1
     9    3   31 1
    10    3   32 1
    11    4    5 1
    12    4   15 1
    13    5   10 ar
    14    5    6 ar
    15    6    7 ar
    16    6   13 1
    17    7    8 ar
    18    7   33 1
    19    8    9 ar
    20    8   34 1
    21    9   10 ar
    22    9   35 1
    23   10   11 1
    24   11   12 1
    25   11   36 1
    26   11   37 1
    27   12   38 1
    28   12   39 1
    29   12   40 1
    30   13   14 1
    31   13   41 1
    32   13   42 1
    33   14   43 1
    34   14   44 1
    35   14   45 1
    36   15   16 2
    37   15   17 2
    38   15   18 1
    39   18   23 ar
    40   18   19 ar
    41   19   20 ar
    42   19   46 1
    43   20   21 ar
    44   20   47 1
    45   21   22 ar
    46   21   25 1
    47   22   23 ar
    48   22   24 1
    49   23   48 1
    50   24   49 1
    51   24   50 1
    52   24   51 1
    53   25   52 1
