@<TRIPOS>MOLECULE
CHEMBL1083178
   66    71     0     0     0
SMALL
USER_CHARGES

@<TRIPOS>ATOM
      1 C1         -0.0052    1.1640    0.2796 C.ar      1 <0>        -0.0567
      2 C2          1.1491    1.9224    0.2523 C.ar      1 <0>        -0.1382
      3 C3          2.3853    1.2991    0.1629 C.ar      1 <0>         0.1178
      4 C4          2.4588   -0.0849    0.1010 C.ar      1 <0>        -0.1972
      5 C5          1.3016   -0.8388    0.1286 C.ar      1 <0>        -0.0634
      6 C6          0.0708   -0.2152    0.2178 C.ar      1 <0>        -0.1295
      7 C7         -1.1900   -1.0401    0.2481 C.3       1 <0>         0.1889
      8 H1         -2.0430   -0.4014    0.0188 H         1 <0>         0.1336
      9 C8         -1.3655   -1.6276    1.6218 C.2       1 <0>        -0.1102
     10 C9         -0.8343   -2.8399    1.9034 C.2       1 <0>        -0.0385
     11 C10        -1.0296   -3.4385    3.2694 C.3       1 <0>        -0.1222
     12 C11        -0.1640   -2.7158    4.3000 C.3       1 <0>         0.0757
     13 O1         -0.2371   -1.3057    4.1370 O.3       1 <0>        -0.3253
     14 C12        -1.4620   -0.7560    3.9349 C.ar      1 <0>         0.1312
     15 C13        -2.0732   -0.8899    2.6768 C.ar      1 <0>        -0.0822
     16 C14        -3.3287   -0.3285    2.4498 C.ar      1 <0>        -0.0748
     17 C15        -3.9665    0.3543    3.4649 C.ar      1 <0>        -0.1478
     18 C16        -3.3623    0.4834    4.7091 C.ar      1 <0>         0.1319
     19 C17        -2.1111   -0.0717    4.9436 C.ar      1 <0>        -0.1585
     20 O2         -3.9991    1.1568    5.7026 O.3       1 <0>        -0.4955
     21 C18        -0.0946   -3.5444    0.8478 C.ar      1 <0>        -0.1306
     22 C19         0.7519   -4.6131    1.1317 C.ar      1 <0>        -0.0558
     23 C20         1.4253   -5.2422    0.1049 C.ar      1 <0>        -0.1691
     24 C21         1.2616   -4.8126   -1.2066 C.ar      1 <0>         0.1493
     25 C22         0.4191   -3.7482   -1.4981 C.ar      1 <0>        -0.1743
     26 C23        -0.2622   -3.1115   -0.4799 C.ar      1 <0>         0.1490
     27 O3         -1.0995   -2.0746   -0.7319 O.3       1 <0>        -0.2943
     28 O4          1.9307   -5.4381   -2.2101 O.3       1 <0>        -0.4959
     29 O5          3.5223    2.0430    0.1355 O.3       1 <0>        -0.3280
     30 C24         4.7595    1.3339    0.0424 C.3       1 <0>         0.0235
     31 C25         5.9191    2.3317    0.0244 C.3       1 <0>        -0.0004
     32 N1          5.9674    3.0495    1.3052 N.4       1 <0>        -0.3907
     33 C26         6.2925    2.1027    2.3739 C.3       1 <0>        -0.0190
     34 C27         5.9861    2.7320    3.7381 C.3       1 <0>        -0.1261
     35 S1          7.0448    4.1988    3.9403 S.3       1 <0>        -0.1893
     36 C28         6.7792    5.0997    2.3812 C.3       1 <0>        -0.1278
     37 C29         6.9669    4.1163    1.2200 C.3       1 <0>        -0.0111
     38 H2         -0.9675    1.6486    0.3537 H         1 <0>         0.1378
     39 H3          1.0893    2.9997    0.3003 H         1 <0>         0.1356
     40 H4          3.4200   -0.5725    0.0310 H         1 <0>         0.1276
     41 H5          1.3583   -1.9163    0.0805 H         1 <0>         0.1339
     42 H6         -2.0779   -3.3495    3.5545 H         1 <0>         0.0866
     43 H7         -0.7529   -4.4925    3.2431 H         1 <0>         0.0954
     44 H8         -0.5069   -2.9778    5.3009 H         1 <0>         0.0654
     45 H9          0.8716   -3.0355    4.1835 H         1 <0>         0.1014
     46 H10        -3.8002   -0.4275    1.4832 H         1 <0>         0.1361
     47 H11        -4.9392    0.7905    3.2914 H         1 <0>         0.1382
     48 H12        -1.6463    0.0319    5.9129 H         1 <0>         0.1387
     49 H13        -4.5663    0.6006    6.2540 H         1 <0>         0.3979
     50 H14         0.8808   -4.9475    2.1505 H         1 <0>         0.1360
     51 H15         2.0826   -6.0714    0.3212 H         1 <0>         0.1375
     52 H16         0.2969   -3.4189   -2.5194 H         1 <0>         0.1425
     53 H17         1.4498   -6.1808   -2.6003 H         1 <0>         0.4007
     54 H18         4.8638    0.6710    0.9014 H         1 <0>         0.0870
     55 H19         4.7726    0.7450   -0.8747 H         1 <0>         0.1129
     56 H20         6.8565    1.7967   -0.1278 H         1 <0>         0.1536
     57 H21         5.7721    3.0450   -0.7866 H         1 <0>         0.1469
     58 H22         5.6967    1.1984    2.2502 H         1 <0>         0.1420
     59 H23         7.3509    1.8476    2.3222 H         1 <0>         0.1460
     60 H24         4.9376    3.0270    3.7797 H         1 <0>         0.1114
     61 H25         6.1981    2.0138    4.5301 H         1 <0>         0.1545
     62 H26         5.7680    5.5058    2.3591 H         1 <0>         0.1114
     63 H27         7.5033    5.9102    2.2972 H         1 <0>         0.1555
     64 H28         7.9654    3.6820    1.2709 H         1 <0>         0.1444
     65 H29         6.8515    4.6461    0.2744 H         1 <0>         0.1460
     66 H30         5.0633    3.4575    1.4897 H         1 <0>         0.4287
@<TRIPOS>BOND
     1    1    6 ar
     2    1    2 ar
     3    1   38 1
     4    2    3 ar
     5    2   39 1
     6    3    4 ar
     7    3   29 1
     8    4    5 ar
     9    4   40 1
    10    5    6 ar
    11    5   41 1
    12    6    7 1
    13    7    8 1
    14    7   27 1
    15    7    9 1
    16    9   15 1
    17    9   10 2
    18   10   11 1
    19   10   21 1
    20   11   12 1
    21   11   42 1
    22   11   43 1
    23   12   13 1
    24   12   44 1
    25   12   45 1
    26   13   14 1
    27   14   19 ar
    28   14   15 ar
    29   15   16 ar
    30   16   17 ar
    31   16   46 1
    32   17   18 ar
    33   17   47 1
    34   18   19 ar
    35   18   20 1
    36   19   48 1
    37   20   49 1
    38   21   26 ar
    39   21   22 ar
    40   22   23 ar
    41   22   50 1
    42   23   24 ar
    43   23   51 1
    44   24   25 ar
    45   24   28 1
    46   25   26 ar
    47   25   52 1
    48   26   27 1
    49   28   53 1
    50   29   30 1
    51   30   31 1
    52   30   54 1
    53   30   55 1
    54   31   32 1
    55   31   56 1
    56   31   57 1
    57   32   37 1
    58   32   33 1
    59   32   66 1
    60   33   34 1
    61   33   58 1
    62   33   59 1
    63   34   35 1
    64   34   60 1
    65   34   61 1
    66   35   36 1
    67   36   37 1
    68   36   62 1
    69   36   63 1
    70   37   64 1
    71   37   65 1
