@<TRIPOS>MOLECULE
CHEMBL302362
   54    58     0     0     0
SMALL
USER_CHARGES

@<TRIPOS>ATOM
      1 C1         -0.5779    1.2887   -0.0358 C.3       1 <0>        -0.1192
      2 C2          0.0100   -0.0984    0.0043 C.ar      1 <0>        -0.0715
      3 C3          0.2721   -0.7724   -1.1698 C.ar      1 <0>        -0.1254
      4 C4          0.8114   -2.0464   -1.1350 C.ar      1 <0>        -0.1116
      5 C5          1.0924   -2.6542    0.0765 C.ar      1 <0>        -0.1301
      6 C6          0.8362   -1.9938    1.2591 C.ar      1 <0>        -0.0940
      7 C7          0.2964   -0.7033    1.2324 C.ar      1 <0>        -0.0560
      8 C8          0.0255    0.0110    2.4894 C.2       1 <0>        -0.1069
      9 C9         -0.0558   -0.6708    3.6465 C.2       1 <0>         0.0981
     10 C10        -0.1907   -0.0415    4.9647 C.ar      1 <0>        -0.0175
     11 C11        -1.1850   -0.6389    5.7939 C.ar      1 <0>        -0.0939
     12 C12        -1.6965    0.0651    6.8691 C.ar      1 <0>        -0.0505
     13 C13        -1.1678    1.3014    7.1917 C.ar      1 <0>        -0.1907
     14 C14        -0.0481    1.7842    6.5243 C.ar      1 <0>         0.2318
     15 C15         0.5127    1.0518    5.4594 C.ar      1 <0>        -0.0832
     16 C16         1.8486    1.4534    4.9943 C.2       1 <0>        -0.0549
     17 C17         2.4004    2.5861    5.4147 C.2       1 <0>        -0.1698
     18 C18         1.7489    3.5229    6.3838 C.3       1 <0>         0.2152
     19 N1          0.4822    3.0136    6.8972 N.pl3     1 <0>        -0.7253
     20 C19         1.5086    4.8733    5.6936 C.3       1 <0>        -0.1588
     21 C20         2.7042    3.7498    7.5683 C.3       1 <0>        -0.1604
     22 C21         2.6656    0.5747    4.0770 C.3       1 <0>        -0.1163
     23 C22        -1.5924   -2.0202    5.4617 C.ar      1 <0>        -0.0937
     24 C23        -2.5686   -2.6751    6.2087 C.ar      1 <0>        -0.0824
     25 C24        -2.9288   -3.9677    5.8858 C.ar      1 <0>        -0.1408
     26 C25        -2.3257   -4.6149    4.8192 C.ar      1 <0>        -0.0887
     27 C26        -1.3622   -3.9712    4.0673 C.ar      1 <0>        -0.1353
     28 C27        -0.9863   -2.6746    4.3797 C.ar      1 <0>         0.1135
     29 O1         -0.0375   -2.0456    3.6382 O.3       1 <0>        -0.2424
     30 H1          0.2266    2.0234   -0.0690 H         1 <0>         0.0722
     31 H2         -1.2022    1.3932   -0.9232 H         1 <0>         0.0684
     32 H3         -1.1832    1.4527    0.8557 H         1 <0>         0.0673
     33 H4          0.0557   -0.3049   -2.1190 H         1 <0>         0.1220
     34 H5          1.0138   -2.5693   -2.0581 H         1 <0>         0.1208
     35 H6          1.5133   -3.6487    0.0953 H         1 <0>         0.1216
     36 H7          1.0556   -2.4695    2.2035 H         1 <0>         0.1410
     37 H8         -0.1082    1.0826    2.4836 H         1 <0>         0.1439
     38 H9         -2.5061   -0.3441    7.4547 H         1 <0>         0.1312
     39 H10        -1.6277    1.9013    7.9623 H         1 <0>         0.1287
     40 H11         3.3844    2.8411    5.0268 H         1 <0>         0.1280
     41 H12        -0.0257    3.5662    7.5352 H         1 <0>         0.4048
     42 H13         0.8594    4.7295    4.8299 H         1 <0>         0.0602
     43 H14         1.0342    5.5602    6.3944 H         1 <0>         0.0608
     44 H15         2.4618    5.2888    5.3665 H         1 <0>         0.0701
     45 H16         3.6367    4.1821    7.2053 H         1 <0>         0.0694
     46 H17         2.2419    4.4310    8.2826 H         1 <0>         0.0609
     47 H18         2.9109    2.7972    8.0561 H         1 <0>         0.0596
     48 H19         2.4398    0.8228    3.0399 H         1 <0>         0.0739
     49 H20         3.7264    0.7383    4.2669 H         1 <0>         0.0672
     50 H21         2.4204   -0.4711    4.2621 H         1 <0>         0.0671
     51 H22        -3.0492   -2.1735    7.0350 H         1 <0>         0.1287
     52 H23        -3.6801   -4.4796    6.4682 H         1 <0>         0.1279
     53 H24        -2.6076   -5.6287    4.5764 H         1 <0>         0.1319
     54 H25        -0.9037   -4.4778    3.2315 H         1 <0>         0.1332
@<TRIPOS>BOND
     1    1    2 1
     2    1   30 1
     3    1   31 1
     4    1   32 1
     5    2    7 ar
     6    2    3 ar
     7    3    4 ar
     8    3   33 1
     9    4    5 ar
    10    4   34 1
    11    5    6 ar
    12    5   35 1
    13    6    7 ar
    14    6   36 1
    15    7    8 1
    16    8    9 2
    17    8   37 1
    18    9   29 1
    19    9   10 1
    20   10   15 ar
    21   10   11 ar
    22   11   12 ar
    23   11   23 1
    24   12   13 ar
    25   12   38 1
    26   13   14 ar
    27   13   39 1
    28   14   19 1
    29   14   15 ar
    30   15   16 1
    31   16   17 2
    32   16   22 1
    33   17   18 1
    34   17   40 1
    35   18   19 1
    36   18   20 1
    37   18   21 1
    38   19   41 1
    39   20   42 1
    40   20   43 1
    41   20   44 1
    42   21   45 1
    43   21   46 1
    44   21   47 1
    45   22   48 1
    46   22   49 1
    47   22   50 1
    48   23   28 ar
    49   23   24 ar
    50   24   25 ar
    51   24   51 1
    52   25   26 ar
    53   25   52 1
    54   26   27 ar
    55   26   53 1
    56   27   28 ar
    57   27   54 1
    58   28   29 1
