@<TRIPOS>MOLECULE
CHEMBL290490
   93    96     0     0     0
SMALL
USER_CHARGES

@<TRIPOS>ATOM
      1 C1         -0.0974    2.1599    0.6103 C.3       1 <0>        -0.1525
      2 C2         -0.1213    0.6303    0.5880 C.3       1 <0>        -0.1222
      3 C3          0.6385    0.0906    1.8014 C.3       1 <0>        -0.1341
      4 C4          0.6147   -1.4391    1.7790 C.3       1 <0>         0.1127
      5 N1          1.3421   -1.9558    2.9409 N.am      1 <0>        -0.6218
      6 C5          0.6320   -2.2073    4.1973 C.3       1 <0>         0.0761
      7 C6          2.6648   -2.1999    2.8539 C.2       1 <0>         0.5109
      8 O1          3.2527   -1.9917    1.8138 O.2       1 <0>        -0.5365
      9 C7          3.4131   -2.7314    4.0491 C.3       1 <0>        -0.1394
     10 C8          4.8874   -2.9192    3.6855 C.3       1 <0>        -0.1055
     11 C9          5.6472   -3.4589    4.8989 C.3       1 <0>        -0.1196
     12 C10         7.1215   -3.6466    4.5354 C.3       1 <0>        -0.1206
     13 C11         7.8812   -4.1863    5.7488 C.3       1 <0>        -0.1195
     14 C12         9.3555   -4.3740    5.3853 C.3       1 <0>        -0.1209
     15 C13        10.1153   -4.9137    6.5987 C.3       1 <0>        -0.1186
     16 C14        11.5896   -5.1014    6.2352 C.3       1 <0>        -0.1141
     17 C15        12.3493   -5.6411    7.4486 C.3       1 <0>        -0.1006
     18 C16        13.8236   -5.8288    7.0850 C.3       1 <0>        -0.1023
     19 S1         14.7244   -6.4687    8.5237 S.3       1 <0>        -0.2093
     20 C17        16.4359   -6.6334    7.9333 C.3       1 <0>        -0.0924
     21 H1         16.7803   -5.6800    7.5341 H         1 <0>         0.1212
     22 C18        17.3465   -7.0963    9.0661 C.3       1 <0>        -0.0368
     23 C19        18.7681   -7.2891    8.5419 C.3       1 <0>        -0.0464
     24 C20        19.7398   -7.6121    9.6627 C.3       1 <0>        -0.1060
     25 C21        19.7821   -6.5195   10.7390 C.3       1 <0>        -0.1019
     26 C22        18.6637   -5.5271   10.5591 C.3       1 <0>        -0.0488
     27 C23        17.3236   -6.2479   10.2967 C.3       1 <0>        -0.0757
     28 C24        16.3291   -5.0826   10.3697 C.3       1 <0>        -0.1040
     29 C25        16.8722   -4.2222   11.5464 C.3       1 <0>        -0.1603
     30 C26        18.3014   -4.7411   11.8414 C.3       1 <0>         0.1017
     31 H2         18.3085   -5.4070   12.6946 H         1 <0>         0.0606
     32 O2         19.2091   -3.6562   12.0103 O.3       1 <0>        -0.5569
     33 C27        18.9995   -4.4819    9.4982 C.3       1 <0>        -0.1396
     34 C28        18.7743   -8.3686    7.4886 C.ar      1 <0>        -0.0352
     35 C29        19.8807   -9.1720    7.3163 C.ar      1 <0>        -0.1158
     36 C30        19.8816  -10.1584    6.3459 C.ar      1 <0>        -0.1051
     37 C31        18.7686  -10.3471    5.5372 C.ar      1 <0>         0.0894
     38 C32        17.6526   -9.5448    5.6984 C.ar      1 <0>        -0.0805
     39 C33        17.6505   -8.5454    6.6767 C.ar      1 <0>        -0.1483
     40 C34        16.4645   -7.6889    6.8421 C.2       1 <0>         0.4025
     41 O3         15.5032   -7.8245    6.1072 O.2       1 <0>        -0.4387
     42 O4         18.7751  -11.3199    4.5877 O.3       1 <0>        -0.4950
     43 H3          0.9351    2.5077    0.5767 H         1 <0>         0.0541
     44 H4         -0.6387    2.5444   -0.2542 H         1 <0>         0.0555
     45 H5         -0.5716    2.5174    1.5243 H         1 <0>         0.0531
     46 H6         -1.1537    0.2825    0.6216 H         1 <0>         0.0623
     47 H7          0.3529    0.2728   -0.3261 H         1 <0>         0.0641
     48 H8          1.6710    0.4384    1.7677 H         1 <0>         0.0659
     49 H9          0.1643    0.4480    2.7154 H         1 <0>         0.0617
     50 H10        -0.4178   -1.7869    1.8127 H         1 <0>         0.0759
     51 H11         1.0889   -1.7965    0.8650 H         1 <0>         0.0837
     52 H12         0.2584   -3.2313    4.2048 H         1 <0>         0.0582
     53 H13         1.3139   -2.0632    5.0353 H         1 <0>         0.0736
     54 H14        -0.2049   -1.5146    4.2866 H         1 <0>         0.0726
     55 H15         3.3296   -2.0241    4.8741 H         1 <0>         0.0925
     56 H16         2.9876   -3.6896    4.3475 H         1 <0>         0.0925
     57 H17         4.9709   -3.6265    2.8605 H         1 <0>         0.0692
     58 H18         5.3129   -1.9610    3.3871 H         1 <0>         0.0690
     59 H19         5.5636   -2.7515    5.7240 H         1 <0>         0.0616
     60 H20         5.2217   -4.4170    5.1973 H         1 <0>         0.0618
     61 H21         7.2050   -4.3540    3.7103 H         1 <0>         0.0621
     62 H22         7.5469   -2.6884    4.2370 H         1 <0>         0.0619
     63 H23         7.7977   -3.4789    6.5739 H         1 <0>         0.0606
     64 H24         7.4557   -5.1444    6.0472 H         1 <0>         0.0607
     65 H25         9.4391   -5.0814    4.5602 H         1 <0>         0.0614
     66 H26         9.7810   -3.4158    5.0869 H         1 <0>         0.0611
     67 H27        10.0317   -4.2063    7.4238 H         1 <0>         0.0617
     68 H28         9.6898   -5.8718    6.8971 H         1 <0>         0.0619
     69 H29        11.6731   -5.8088    5.4101 H         1 <0>         0.0640
     70 H30        12.0150   -4.1433    5.9368 H         1 <0>         0.0627
     71 H31        12.2658   -4.9337    8.2736 H         1 <0>         0.0686
     72 H32        11.9238   -6.5992    7.7470 H         1 <0>         0.0697
     73 H33        13.9072   -6.5362    6.2600 H         1 <0>         0.1028
     74 H34        14.2491   -4.8707    6.7866 H         1 <0>         0.0756
     75 H35        16.9843   -8.1069    9.3633 H         1 <0>         0.0786
     76 H36        19.0914   -6.3938    8.0211 H         1 <0>         0.0996
     77 H37        19.4560   -8.5660   10.1233 H         1 <0>         0.0679
     78 H38        20.7471   -7.7340    9.2426 H         1 <0>         0.0717
     79 H39        19.7038   -6.9830   11.7326 H         1 <0>         0.0641
     80 H40        20.7478   -5.9979   10.6949 H         1 <0>         0.0694
     81 H41        17.1149   -6.9116   11.1652 H         1 <0>         0.0768
     82 H42        16.3025   -4.5127    9.4473 H         1 <0>         0.0743
     83 H43        15.3308   -5.4504   10.6258 H         1 <0>         0.0812
     84 H44        16.9044   -3.1728   11.2574 H         1 <0>         0.0734
     85 H45        16.2387   -4.3509   12.4234 H         1 <0>         0.0645
     86 H46        19.0392   -3.1202   12.7971 H         1 <0>         0.3752
     87 H47        19.3024   -4.9822    8.5784 H         1 <0>         0.0526
     88 H48        18.1215   -3.8657    9.3045 H         1 <0>         0.0580
     89 H49        19.8144   -3.8516    9.8543 H         1 <0>         0.0704
     90 H50        20.7564   -9.0382    7.9329 H         1 <0>         0.1396
     91 H51        20.7535  -10.7817    6.2166 H         1 <0>         0.1365
     92 H52        16.7856   -9.6908    5.0716 H         1 <0>         0.1406
     93 H53        18.4486  -12.1753    4.8988 H         1 <0>         0.3933
@<TRIPOS>BOND
     1    1    2 1
     2    1   43 1
     3    1   44 1
     4    1   45 1
     5    2    3 1
     6    2   46 1
     7    2   47 1
     8    3    4 1
     9    3   48 1
    10    3   49 1
    11    4    5 1
    12    4   50 1
    13    4   51 1
    14    5    6 1
    15    5    7 am
    16    6   52 1
    17    6   53 1
    18    6   54 1
    19    7    8 2
    20    7    9 1
    21    9   10 1
    22    9   55 1
    23    9   56 1
    24   10   11 1
    25   10   57 1
    26   10   58 1
    27   11   12 1
    28   11   59 1
    29   11   60 1
    30   12   13 1
    31   12   61 1
    32   12   62 1
    33   13   14 1
    34   13   63 1
    35   13   64 1
    36   14   15 1
    37   14   65 1
    38   14   66 1
    39   15   16 1
    40   15   67 1
    41   15   68 1
    42   16   17 1
    43   16   69 1
    44   16   70 1
    45   17   18 1
    46   17   71 1
    47   17   72 1
    48   18   19 1
    49   18   73 1
    50   18   74 1
    51   19   20 1
    52   20   21 1
    53   20   40 1
    54   20   22 1
    55   22   27 1
    56   22   23 1
    57   22   75 1
    58   23   24 1
    59   23   34 1
    60   23   76 1
    61   24   25 1
    62   24   77 1
    63   24   78 1
    64   25   26 1
    65   25   79 1
    66   25   80 1
    67   26   30 1
    68   26   27 1
    69   26   33 1
    70   27   28 1
    71   27   81 1
    72   28   29 1
    73   28   82 1
    74   28   83 1
    75   29   30 1
    76   29   84 1
    77   29   85 1
    78   30   31 1
    79   30   32 1
    80   32   86 1
    81   33   87 1
    82   33   88 1
    83   33   89 1
    84   34   39 ar
    85   34   35 ar
    86   35   36 ar
    87   35   90 1
    88   36   37 ar
    89   36   91 1
    90   37   38 ar
    91   37   42 1
    92   38   39 ar
    93   38   92 1
    94   39   40 1
    95   40   41 2
    96   42   93 1
