@<TRIPOS>MOLECULE
CHEMBL210063
   73    78     0     0     0
SMALL
USER_CHARGES

@<TRIPOS>ATOM
      1 C1         -0.1744    1.3196    0.8316 C.ar      1 <0>        -0.1183
      2 C2          1.0071    2.0295    0.7259 C.ar      1 <0>        -0.1151
      3 C3          2.2111    1.3572    0.6296 C.ar      1 <0>        -0.1170
      4 C4          2.2338   -0.0249    0.6395 C.ar      1 <0>        -0.0824
      5 C5          1.0524   -0.7348    0.7461 C.ar      1 <0>        -0.1167
      6 C6         -0.1517   -0.0626    0.8410 C.ar      1 <0>        -0.1149
      7 C7          3.5463   -0.7577    0.5336 C.3       1 <0>        -0.0613
      8 C8          4.1134   -0.9934    1.9349 C.3       1 <0>        -0.0306
      9 C9          3.1555   -1.8234    2.7915 C.3       1 <0>        -0.1088
     10 C10         2.9881   -3.2026    2.1462 C.3       1 <0>        -0.1672
     11 C11         4.3237   -3.8844    2.0083 C.2       1 <0>         0.3980
     12 O1          4.3843   -5.0969    2.0013 O.2       1 <0>        -0.4519
     13 C12         5.5510   -3.0930    1.8828 C.2       1 <0>        -0.1618
     14 C13         5.4440   -1.7333    1.8825 C.2       1 <0>         0.0341
     15 C14         6.4797   -0.7176    1.8792 C.ar      1 <0>        -0.1047
     16 C15         7.8234   -0.8062    1.4732 C.ar      1 <0>        -0.0636
     17 C16         8.5965    0.3177    1.6178 C.ar      1 <0>        -0.1603
     18 C17         8.0866    1.4971    2.1419 C.ar      1 <0>         0.1341
     19 C18         6.7505    1.6098    2.5355 C.ar      1 <0>        -0.1352
     20 C19         5.9551    0.4948    2.3824 C.ar      1 <0>        -0.0449
     21 C20         4.4803    0.3347    2.6255 C.3       1 <0>        -0.0864
     22 O2          8.9073    2.5698    2.2753 O.3       1 <0>        -0.4995
     23 C21         6.8723   -3.7524    1.7591 C.ar      1 <0>        -0.0423
     24 C22         7.6176   -3.6102    0.5888 C.ar      1 <0>        -0.0692
     25 C23         8.8467   -4.2252    0.4770 C.ar      1 <0>        -0.1420
     26 C24         9.3425   -4.9853    1.5277 C.ar      1 <0>         0.1153
     27 C25         8.6033   -5.1290    2.6941 C.ar      1 <0>        -0.1981
     28 C26         7.3760   -4.5120    2.8148 C.ar      1 <0>        -0.0517
     29 O3         10.5540   -5.5904    1.4141 O.3       1 <0>        -0.3279
     30 C27        11.0036   -6.3573    2.5329 C.3       1 <0>         0.0250
     31 C28        12.3761   -6.9574    2.2214 C.3       1 <0>        -0.0008
     32 N1         13.3534   -5.8760    2.0391 N.4       1 <0>        -0.3840
     33 C29        14.6300   -6.4431    1.5883 C.3       1 <0>        -0.0072
     34 C30        15.6273   -5.3141    1.3190 C.3       1 <0>        -0.1465
     35 C31        15.8478   -4.5170    2.6079 C.3       1 <0>        -0.1389
     36 C32        14.4991   -3.9927    3.1092 C.3       1 <0>        -0.1452
     37 C33        13.5437   -5.1706    3.3122 C.3       1 <0>        -0.0133
     38 H1         -1.1147    1.8448    0.9113 H         1 <0>         0.1231
     39 H2          0.9893    3.1093    0.7182 H         1 <0>         0.1232
     40 H3          3.1341    1.9119    0.5463 H         1 <0>         0.1211
     41 H4          1.0701   -1.8146    0.7535 H         1 <0>         0.1215
     42 H5         -1.0747   -0.6172    0.9239 H         1 <0>         0.1238
     43 H6          3.3883   -1.7164    0.0396 H         1 <0>         0.0804
     44 H7          4.2497   -0.1612   -0.0474 H         1 <0>         0.0808
     45 H8          3.5668   -1.9365    3.7946 H         1 <0>         0.0764
     46 H9          2.1876   -1.3249    2.8450 H         1 <0>         0.0918
     47 H10         2.3338   -3.8142    2.7675 H         1 <0>         0.1030
     48 H11         2.5389   -3.0870    1.1598 H         1 <0>         0.1061
     49 H12         8.2292   -1.7202    1.0653 H         1 <0>         0.1418
     50 H13         9.6327    0.2835    1.3152 H         1 <0>         0.1280
     51 H14         6.3586    2.5302    2.9425 H         1 <0>         0.1431
     52 H15         3.9293    1.1612    2.1767 H         1 <0>         0.1003
     53 H16         4.2755    0.2764    3.6945 H         1 <0>         0.0956
     54 H17         8.9278    3.1482    1.5006 H         1 <0>         0.3972
     55 H18         7.2324   -3.0193   -0.2291 H         1 <0>         0.1370
     56 H19         9.4242   -4.1157   -0.4290 H         1 <0>         0.1361
     57 H20         8.9917   -5.7213    3.5094 H         1 <0>         0.1290
     58 H21         6.8035   -4.6203    3.7242 H         1 <0>         0.1292
     59 H22        11.0793   -5.7125    3.4085 H         1 <0>         0.0863
     60 H23        10.2932   -7.1594    2.7327 H         1 <0>         0.1099
     61 H24        12.6898   -7.5952    3.0478 H         1 <0>         0.1489
     62 H25        12.3149   -7.5496    1.3083 H         1 <0>         0.1428
     63 H26        15.0274   -7.1017    2.3605 H         1 <0>         0.1291
     64 H27        14.4709   -7.0127    0.6727 H         1 <0>         0.1310
     65 H28        16.5750   -5.7374    0.9861 H         1 <0>         0.1130
     66 H29        15.2310   -4.6550    0.5466 H         1 <0>         0.0879
     67 H30        16.2917   -5.1635    3.3648 H         1 <0>         0.0821
     68 H31        16.5136   -3.6775    2.4078 H         1 <0>         0.0946
     69 H32        14.6404   -3.4714    4.0560 H         1 <0>         0.1122
     70 H33        14.0794   -3.3061    2.3740 H         1 <0>         0.0878
     71 H34        12.5825   -4.8009    3.6693 H         1 <0>         0.1274
     72 H35        13.9642   -5.8564    4.0477 H         1 <0>         0.1302
     73 H36        13.0115   -5.2285    1.3448 H         1 <0>         0.4292
@<TRIPOS>BOND
     1    1    6 ar
     2    1    2 ar
     3    1   38 1
     4    2    3 ar
     5    2   39 1
     6    3    4 ar
     7    3   40 1
     8    4    5 ar
     9    4    7 1
    10    5    6 ar
    11    5   41 1
    12    6   42 1
    13    7    8 1
    14    7   43 1
    15    7   44 1
    16    8   14 1
    17    8   21 1
    18    8    9 1
    19    9   10 1
    20    9   45 1
    21    9   46 1
    22   10   11 1
    23   10   47 1
    24   10   48 1
    25   11   12 2
    26   11   13 1
    27   13   14 2
    28   13   23 1
    29   14   15 1
    30   15   20 ar
    31   15   16 ar
    32   16   17 ar
    33   16   49 1
    34   17   18 ar
    35   17   50 1
    36   18   19 ar
    37   18   22 1
    38   19   20 ar
    39   19   51 1
    40   20   21 1
    41   21   52 1
    42   21   53 1
    43   22   54 1
    44   23   28 ar
    45   23   24 ar
    46   24   25 ar
    47   24   55 1
    48   25   26 ar
    49   25   56 1
    50   26   27 ar
    51   26   29 1
    52   27   28 ar
    53   27   57 1
    54   28   58 1
    55   29   30 1
    56   30   31 1
    57   30   59 1
    58   30   60 1
    59   31   32 1
    60   31   61 1
    61   31   62 1
    62   32   37 1
    63   32   33 1
    64   32   73 1
    65   33   34 1
    66   33   63 1
    67   33   64 1
    68   34   35 1
    69   34   65 1
    70   34   66 1
    71   35   36 1
    72   35   67 1
    73   35   68 1
    74   36   37 1
    75   36   69 1
    76   36   70 1
    77   37   71 1
    78   37   72 1
