@<TRIPOS>MOLECULE
CHEMBL356668
   81    85     0     0     0
SMALL
USER_CHARGES

@<TRIPOS>ATOM
      1 C1         -0.0178    1.4608    0.0101 C.3       1 <0>         0.0505
      2 N1          0.0021   -0.0041    0.0020 N.pl3     1 <0>        -0.5410
      3 C2          0.0241   -0.7433    1.2666 C.3       1 <0>         0.1117
      4 C3         -1.4105   -1.0203    1.7205 C.3       1 <0>        -0.1305
      5 C4         -1.3875   -1.7923    3.0413 C.3       1 <0>        -0.0747
      6 C5         -2.8005   -2.0651    3.4884 C.ar      1 <0>        -0.0895
      7 C6         -3.4587   -1.1539    4.2931 C.ar      1 <0>        -0.1012
      8 C7         -4.7547   -1.4036    4.7034 C.ar      1 <0>        -0.1034
      9 C8         -5.3933   -2.5657    4.3087 C.ar      1 <0>        -0.0337
     10 C9         -4.7340   -3.4773    3.5034 C.ar      1 <0>        -0.1097
     11 C10        -3.4400   -3.2238    3.0890 C.ar      1 <0>        -0.1070
     12 Cl1        -7.0209   -2.8802    4.8242 Cl        1 <0>        -0.0556
     13 C11         0.0000   -0.6876   -1.1969 C.ar      1 <0>         0.6882
     14 N2         -0.0145   -0.0167   -2.3446 N.ar      1 <0>        -0.6346
     15 C12        -0.0165   -0.6751   -3.4993 C.ar      1 <0>         0.6999
     16 N3         -0.0039   -2.0045   -3.5066 N.ar      1 <0>        -0.6254
     17 C13         0.0110   -2.6753   -2.3592 C.ar      1 <0>         0.6918
     18 N4          0.0180   -2.0167   -1.2042 N.ar      1 <0>        -0.6197
     19 N5          0.0236   -4.0553   -2.3667 N.pl3     1 <0>        -0.5654
     20 C14         0.0340   -4.8185   -1.1091 C.3       1 <0>         0.0945
     21 C15        -1.0770   -5.8719   -1.1711 C.3       1 <0>        -0.0228
     22 N6         -0.9073   -6.6905   -2.3782 N.4       1 <0>        -0.3860
     23 C16        -1.0843   -5.8589   -3.5753 C.3       1 <0>        -0.0276
     24 C17         0.0207   -4.8048   -3.6325 C.3       1 <0>         0.0961
     25 C18        -1.9053   -7.7684   -2.3810 C.3       1 <0>         0.0455
     26 C19        -1.6555   -8.6812   -3.5538 C.ar      1 <0>        -0.1692
     27 C20        -2.2601   -8.4249   -4.7702 C.ar      1 <0>        -0.1005
     28 C21        -2.0310   -9.2622   -5.8460 C.ar      1 <0>        -0.1117
     29 C22        -1.1969  -10.3555   -5.7055 C.ar      1 <0>        -0.0786
     30 C23        -0.5916  -10.6114   -4.4894 C.ar      1 <0>        -0.1101
     31 C24        -0.8173   -9.7716   -3.4148 C.ar      1 <0>        -0.0915
     32 N7         -0.0320    0.0214   -4.6907 N.pl3     1 <0>        -0.6504
     33 C25        -0.0463    1.4863   -4.6827 C.3       1 <0>         0.0878
     34 C26        -0.0619    2.0041   -6.1224 C.3       1 <0>        -0.0828
     35 C27        -0.0766    3.5110   -6.1141 C.ar      1 <0>        -0.1179
     36 C28        -1.2813    4.1893   -6.0959 C.ar      1 <0>        -0.0932
     37 C29        -1.2975    5.5706   -6.0887 C.ar      1 <0>        -0.1428
     38 C30        -0.1036    6.2772   -6.0994 C.ar      1 <0>         0.1240
     39 C31         1.1038    5.5943   -6.1173 C.ar      1 <0>        -0.1424
     40 C32         1.1146    4.2128   -6.1191 C.ar      1 <0>        -0.0928
     41 O1         -0.1169    7.6362   -6.0929 O.3       1 <0>        -0.4957
     42 H1          1.0048    1.8381    0.0023 H         1 <0>         0.0967
     43 H2         -0.5450    1.8219   -0.8730 H         1 <0>         0.0761
     44 H3         -0.5280    1.8123    0.9069 H         1 <0>         0.1192
     45 H4          0.5496   -1.6879    1.1262 H         1 <0>         0.1073
     46 H5          0.5371   -0.1514    2.0246 H         1 <0>         0.1102
     47 H6         -1.9359   -0.0757    1.8610 H         1 <0>         0.0754
     48 H7         -1.9235   -1.6122    0.9626 H         1 <0>         0.0704
     49 H8         -0.8620   -2.7369    2.9008 H         1 <0>         0.0791
     50 H9         -0.8745   -1.2004    3.7993 H         1 <0>         0.0838
     51 H10        -2.9600   -0.2469    4.6014 H         1 <0>         0.1331
     52 H11        -5.2687   -0.6918    5.3324 H         1 <0>         0.1384
     53 H12        -5.2319   -4.3848    3.1952 H         1 <0>         0.1336
     54 H13        -2.9270   -3.9331    2.4564 H         1 <0>         0.1243
     55 H14         0.9990   -5.3106   -0.9873 H         1 <0>         0.1120
     56 H15        -0.1457   -4.1455   -0.2707 H         1 <0>         0.1478
     57 H16        -1.0226   -6.5098   -0.2888 H         1 <0>         0.1554
     58 H17        -2.0470   -5.3758   -1.2018 H         1 <0>         0.1375
     59 H18        -1.0353   -6.4871   -4.4648 H         1 <0>         0.1547
     60 H19        -2.0541   -5.3631   -3.5333 H         1 <0>         0.1366
     61 H20        -0.1678   -4.1228   -4.4616 H         1 <0>         0.1475
     62 H21         0.9842   -5.2955   -3.7698 H         1 <0>         0.1108
     63 H22        -1.8280   -8.3376   -1.4547 H         1 <0>         0.1425
     64 H23        -2.9038   -7.3388   -2.4612 H         1 <0>         0.1371
     65 H24        -2.9117   -7.5706   -4.8800 H         1 <0>         0.1298
     66 H25        -2.5039   -9.0623   -6.7962 H         1 <0>         0.1379
     67 H26        -1.0184  -11.0101   -6.5458 H         1 <0>         0.1387
     68 H27         0.0598  -11.4658   -4.3795 H         1 <0>         0.1388
     69 H28        -0.3415   -9.9694   -2.4656 H         1 <0>         0.1324
     70 H29        -0.0334   -0.4590   -5.5334 H         1 <0>         0.4464
     71 H30        -0.9360    1.8381   -4.1604 H         1 <0>         0.0917
     72 H31         0.8438    1.8556   -4.1734 H         1 <0>         0.0927
     73 H32         0.8278    1.6523   -6.6447 H         1 <0>         0.0941
     74 H33        -0.9520    1.6348   -6.6317 H         1 <0>         0.0936
     75 H34        -2.2104    3.6388   -6.0876 H         1 <0>         0.1278
     76 H35        -2.2387    6.1000   -6.0752 H         1 <0>         0.1354
     77 H36         2.0345    6.1421   -6.1256 H         1 <0>         0.1357
     78 H37         2.0544    3.6807   -6.1285 H         1 <0>         0.1284
     79 H38        -0.1104    8.0253   -5.2077 H         1 <0>         0.3984
     80 H39        -0.0240    0.9532   -2.3393 H         1 <0>         0.4403
     81 H40         0.0182   -7.0924   -2.3832 H         1 <0>         0.4259
@<TRIPOS>BOND
     1    1    2 1
     2    1   42 1
     3    1   43 1
     4    1   44 1
     5    2    3 1
     6    2   13 1
     7    3    4 1
     8    3   45 1
     9    3   46 1
    10    4    5 1
    11    4   47 1
    12    4   48 1
    13    5    6 1
    14    5   49 1
    15    5   50 1
    16    6   11 ar
    17    6    7 ar
    18    7    8 ar
    19    7   51 1
    20    8    9 ar
    21    8   52 1
    22    9   10 ar
    23    9   12 1
    24   10   11 ar
    25   10   53 1
    26   11   54 1
    27   13   18 ar
    28   13   14 ar
    29   14   15 ar
    30   14   80 1
    31   15   16 ar
    32   15   32 1
    33   16   17 ar
    34   17   18 ar
    35   17   19 1
    36   19   24 1
    37   19   20 1
    38   20   21 1
    39   20   55 1
    40   20   56 1
    41   21   22 1
    42   21   57 1
    43   21   58 1
    44   22   23 1
    45   22   25 1
    46   22   81 1
    47   23   24 1
    48   23   59 1
    49   23   60 1
    50   24   61 1
    51   24   62 1
    52   25   26 1
    53   25   63 1
    54   25   64 1
    55   26   31 ar
    56   26   27 ar
    57   27   28 ar
    58   27   65 1
    59   28   29 ar
    60   28   66 1
    61   29   30 ar
    62   29   67 1
    63   30   31 ar
    64   30   68 1
    65   31   69 1
    66   32   33 1
    67   32   70 1
    68   33   34 1
    69   33   71 1
    70   33   72 1
    71   34   35 1
    72   34   73 1
    73   34   74 1
    74   35   40 ar
    75   35   36 ar
    76   36   37 ar
    77   36   75 1
    78   37   38 ar
    79   37   76 1
    80   38   39 ar
    81   38   41 1
    82   39   40 ar
    83   39   77 1
    84   40   78 1
    85   41   79 1
