@<TRIPOS>MOLECULE
CHEMBL1083194
   62    67     0     0     0
SMALL
USER_CHARGES

@<TRIPOS>ATOM
      1 C1         -0.0164    1.3773   -0.0547 C.ar      1 <0>        -0.0582
      2 C2          1.1697    2.0854   -0.0624 C.ar      1 <0>        -0.1470
      3 C3          2.3801    1.4093   -0.0131 C.ar      1 <0>         0.1384
      4 C4          2.3960    0.0233    0.0439 C.ar      1 <0>        -0.2049
      5 C5          1.2071   -0.6802    0.0513 C.ar      1 <0>        -0.0633
      6 C6          0.0021   -0.0041    0.0020 C.ar      1 <0>        -0.1521
      7 C7         -1.2934   -0.7740    0.0107 C.3       1 <0>         0.1936
      8 H1         -2.0997   -0.1244   -0.3298 H         1 <0>         0.1304
      9 C8         -1.5866   -1.2357    1.4120 C.2       1 <0>        -0.1053
     10 C9         -1.1299   -2.4395    1.8287 C.2       1 <0>        -0.0449
     11 C10        -1.4430   -2.9122    3.2220 C.3       1 <0>        -0.1192
     12 C11        -0.6172   -2.1389    4.2485 C.3       1 <0>         0.0752
     13 O1         -0.6164   -0.7458    3.9658 O.3       1 <0>        -0.3220
     14 C12        -1.7993   -0.1682    3.6334 C.ar      1 <0>         0.1340
     15 C13        -2.3300   -0.3844    2.3504 C.ar      1 <0>        -0.0788
     16 C14        -3.5413    0.2038    1.9903 C.ar      1 <0>        -0.0753
     17 C15        -4.2148    0.9944    2.8985 C.ar      1 <0>        -0.1494
     18 C16        -3.6902    1.2050    4.1675 C.ar      1 <0>         0.1283
     19 C17        -2.4836    0.6237    4.5343 C.ar      1 <0>        -0.1583
     20 O2         -4.3618    1.9843    5.0550 O.3       1 <0>        -0.4952
     21 C18        -0.3531   -3.2590    0.8892 C.ar      1 <0>        -0.1276
     22 C19         0.4240   -4.3318    1.3187 C.ar      1 <0>        -0.0572
     23 C20         1.1362   -5.0712    0.3969 C.ar      1 <0>        -0.1702
     24 C21         1.0801   -4.7483   -0.9535 C.ar      1 <0>         0.1466
     25 C22         0.3073   -3.6806   -1.3900 C.ar      1 <0>        -0.1740
     26 C23        -0.4119   -2.9340   -0.4780 C.ar      1 <0>         0.1529
     27 O3         -1.1834   -1.8906   -0.8725 O.3       1 <0>        -0.2967
     28 O4          1.7866   -5.4821   -1.8527 O.3       1 <0>        -0.4947
     29 O5          3.5484    2.1036   -0.0209 O.3       1 <0>        -0.3034
     30 C24         4.7562    1.3418    0.0319 C.3       1 <0>         0.0409
     31 C25         5.9577    2.2889    0.0142 C.3       1 <0>         0.1024
     32 N1          5.9578    3.1005    1.2338 N.am      1 <0>        -0.5740
     33 C26         5.3301    4.2799    1.3192 C.2       1 <0>         0.5267
     34 O6          4.7023    4.8075    0.4264 O.2       1 <0>        -0.4639
     35 C27         5.5279    4.8497    2.7069 C.3       1 <0>        -0.1579
     36 C28         6.3879    3.7839    3.4162 C.3       1 <0>        -0.1573
     37 C29         6.5808    2.7212    2.3564 C.2       1 <0>         0.5257
     38 O7          7.2032    1.6909    2.5003 O.2       1 <0>        -0.4832
     39 H2         -0.9591    1.9033   -0.0886 H         1 <0>         0.1309
     40 H3          1.1547    3.1644   -0.1071 H         1 <0>         0.1339
     41 H4          3.3370   -0.5053    0.0820 H         1 <0>         0.1268
     42 H5          1.2189   -1.7592    0.0956 H         1 <0>         0.1271
     43 H6         -2.5030   -2.7588    3.4241 H         1 <0>         0.0843
     44 H7         -1.2123   -3.9745    3.3016 H         1 <0>         0.0936
     45 H8         -1.0379   -2.3016    5.2408 H         1 <0>         0.0636
     46 H9          0.4086   -2.5071    4.2319 H         1 <0>         0.1022
     47 H10        -3.9507    0.0417    1.0041 H         1 <0>         0.1354
     48 H11        -5.1532    1.4517    2.6216 H         1 <0>         0.1363
     49 H12        -2.0808    0.7910    5.5223 H         1 <0>         0.1384
     50 H13        -4.9888    1.4992    5.6087 H         1 <0>         0.3944
     51 H14         0.4693   -4.5834    2.3680 H         1 <0>         0.1346
     52 H15         1.7399   -5.9040    0.7262 H         1 <0>         0.1358
     53 H16         0.2687   -3.4345   -2.4409 H         1 <0>         0.1417
     54 H17         1.3004   -6.2360   -2.2138 H         1 <0>         0.3966
     55 H18         4.7731    0.7505    0.9474 H         1 <0>         0.0691
     56 H19         4.8046    0.6773   -0.8308 H         1 <0>         0.0827
     57 H20         6.8782    1.7071   -0.0352 H         1 <0>         0.1168
     58 H21         5.8932    2.9414   -0.8565 H         1 <0>         0.1072
     59 H22         6.0582    5.8008    2.6591 H         1 <0>         0.1218
     60 H23         4.5698    4.9686    3.2130 H         1 <0>         0.1213
     61 H24         7.3460    4.2048    3.7212 H         1 <0>         0.1229
     62 H25         5.8576    3.3725    4.2751 H         1 <0>         0.1212
@<TRIPOS>BOND
     1    1    6 ar
     2    1    2 ar
     3    1   39 1
     4    2    3 ar
     5    2   40 1
     6    3    4 ar
     7    3   29 1
     8    4    5 ar
     9    4   41 1
    10    5    6 ar
    11    5   42 1
    12    6    7 1
    13    7    8 1
    14    7   27 1
    15    7    9 1
    16    9   15 1
    17    9   10 2
    18   10   11 1
    19   10   21 1
    20   11   12 1
    21   11   43 1
    22   11   44 1
    23   12   13 1
    24   12   45 1
    25   12   46 1
    26   13   14 1
    27   14   19 ar
    28   14   15 ar
    29   15   16 ar
    30   16   17 ar
    31   16   47 1
    32   17   18 ar
    33   17   48 1
    34   18   19 ar
    35   18   20 1
    36   19   49 1
    37   20   50 1
    38   21   26 ar
    39   21   22 ar
    40   22   23 ar
    41   22   51 1
    42   23   24 ar
    43   23   52 1
    44   24   25 ar
    45   24   28 1
    46   25   26 ar
    47   25   53 1
    48   26   27 1
    49   28   54 1
    50   29   30 1
    51   30   31 1
    52   30   55 1
    53   30   56 1
    54   31   32 1
    55   31   57 1
    56   31   58 1
    57   32   37 am
    58   32   33 am
    59   33   34 2
    60   33   35 1
    61   35   36 1
    62   35   59 1
    63   35   60 1
    64   36   37 1
    65   36   61 1
    66   36   62 1
    67   37   38 2
