@<TRIPOS>MOLECULE
CHEMBL173397
   66    71     0     0     0
SMALL
USER_CHARGES

@<TRIPOS>ATOM
      1 C1          0.0438    1.0466    0.0482 C.ar      1 <0>        -0.0734
      2 C2          1.1882    1.8192    0.0061 C.ar      1 <0>        -0.1371
      3 C3          2.4352    1.2115    0.0270 C.ar      1 <0>         0.1121
      4 C4          2.5294   -0.1712    0.0902 C.ar      1 <0>        -0.1986
      5 C5          1.3820   -0.9394    0.1320 C.ar      1 <0>        -0.0577
      6 C6          0.1404   -0.3313    0.1110 C.ar      1 <0>        -0.0769
      7 C7         -1.1097   -1.1716    0.1572 C.3       1 <0>         0.0272
      8 C8         -1.1070   -2.1699   -0.9628 C.ar      1 <0>        -0.0753
      9 C9         -1.0763   -2.0029   -2.3275 C.ar      1 <0>        -0.1146
     10 C10        -1.0840   -3.1613   -3.1081 C.ar      1 <0>         0.1123
     11 C11        -1.1207   -4.4229   -2.5350 C.ar      1 <0>        -0.1440
     12 C12        -1.1516   -4.6031   -1.1633 C.ar      1 <0>        -0.0726
     13 C13        -1.1442   -3.4479   -0.3679 C.ar      1 <0>        -0.0717
     14 C14        -1.1693   -3.3032    1.0794 C.2       1 <0>        -0.0708
     15 C15        -1.1408   -1.9890    1.4154 C.2       1 <0>        -0.0896
     16 C16        -1.1601   -1.5619    2.8214 C.ar      1 <0>        -0.0345
     17 C17        -1.4390   -0.2491    3.1901 C.ar      1 <0>        -0.0839
     18 C18        -1.4725    0.0911    4.5269 C.ar      1 <0>        -0.1475
     19 C19        -1.2313   -0.8758    5.4947 C.ar      1 <0>         0.1125
     20 C20        -0.9420   -2.1834    5.1281 C.ar      1 <0>        -0.1420
     21 C21        -0.8905   -2.5333    3.7956 C.ar      1 <0>        -0.0540
     22 C22        -0.5062   -3.9303    3.3922 C.3       1 <0>        -0.0790
     23 C23        -1.2370   -4.3859    2.1314 C.3       1 <0>        -0.0699
     24 O1         -1.2785   -0.5393    6.8102 O.3       1 <0>        -0.5008
     25 O2         -1.0553   -3.0487   -4.4618 O.3       1 <0>        -0.4975
     26 O3          3.5625    1.9693   -0.0147 O.3       1 <0>        -0.3284
     27 C24         4.8117    1.2758    0.0102 C.3       1 <0>         0.0259
     28 C25         5.9580    2.2878   -0.0434 C.3       1 <0>        -0.0007
     29 N1          5.9254    3.1288    1.1606 N.4       1 <0>        -0.3839
     30 C26         6.9247    4.1968    1.0368 C.3       1 <0>        -0.0070
     31 C27         6.8396    5.1234    2.2516 C.3       1 <0>        -0.1466
     32 C28         7.1096    4.3145    3.5236 C.3       1 <0>        -0.1388
     33 C29         6.1082    3.1588    3.6040 C.3       1 <0>        -0.1454
     34 C30         6.2203    2.3050    2.3391 C.3       1 <0>        -0.0132
     35 H1         -0.9271    1.5194    0.0364 H         1 <0>         0.1362
     36 H2          1.1123    2.8954   -0.0434 H         1 <0>         0.1339
     37 H3          3.4990   -0.6467    0.1062 H         1 <0>         0.1263
     38 H4          1.4548   -2.0158    0.1812 H         1 <0>         0.1270
     39 H5         -1.9936   -0.5366    0.0972 H         1 <0>         0.1146
     40 H6         -1.0479   -1.0206   -2.7754 H         1 <0>         0.1368
     41 H7         -1.1257   -5.2907   -3.1779 H         1 <0>         0.1316
     42 H8         -1.1797   -5.5896   -0.7246 H         1 <0>         0.1380
     43 H9         -1.6277    0.4989    2.4343 H         1 <0>         0.1269
     44 H10        -1.6856    1.1084    4.8205 H         1 <0>         0.1308
     45 H11        -0.7568   -2.9279    5.8883 H         1 <0>         0.1321
     46 H12         0.5680   -3.9635    3.2103 H         1 <0>         0.0796
     47 H13        -0.7468   -4.6130    4.2072 H         1 <0>         0.0848
     48 H14        -2.2799   -4.5925    2.3720 H         1 <0>         0.0848
     49 H15        -0.7683   -5.2925    1.7488 H         1 <0>         0.0847
     50 H16        -2.1535   -0.6376    7.2102 H         1 <0>         0.3951
     51 H17        -0.1639   -3.0336   -4.8364 H         1 <0>         0.3919
     52 H18         4.8850    0.6921    0.9278 H         1 <0>         0.0857
     53 H19         4.8746    0.6096   -0.8502 H         1 <0>         0.1086
     54 H20         6.9090    1.7574   -0.0905 H         1 <0>         0.1486
     55 H21         5.8477    2.9152   -0.9279 H         1 <0>         0.1425
     56 H22         7.9209    3.7574    0.9846 H         1 <0>         0.1290
     57 H23         6.7332    4.7695    0.1294 H         1 <0>         0.1309
     58 H24         7.5835    5.9146    2.1586 H         1 <0>         0.1130
     59 H25         5.8439    5.5635    2.3046 H         1 <0>         0.0880
     60 H26         8.1239    3.9165    3.4940 H         1 <0>         0.0820
     61 H27         6.9946    4.9579    4.3959 H         1 <0>         0.0948
     62 H28         6.3292    2.5457    4.4777 H         1 <0>         0.1123
     63 H29         5.0972    3.5581    3.6851 H         1 <0>         0.0880
     64 H30         5.5088    1.4810    2.3932 H         1 <0>         0.1271
     65 H31         7.2315    1.9059    2.2591 H         1 <0>         0.1301
     66 H32         5.0086    3.5385    1.2588 H         1 <0>         0.4295
@<TRIPOS>BOND
     1    1    6 ar
     2    1    2 ar
     3    1   35 1
     4    2    3 ar
     5    2   36 1
     6    3    4 ar
     7    3   26 1
     8    4    5 ar
     9    4   37 1
    10    5    6 ar
    11    5   38 1
    12    6    7 1
    13    7   15 1
    14    7    8 1
    15    7   39 1
    16    8   13 ar
    17    8    9 ar
    18    9   10 ar
    19    9   40 1
    20   10   11 ar
    21   10   25 1
    22   11   12 ar
    23   11   41 1
    24   12   13 ar
    25   12   42 1
    26   13   14 1
    27   14   23 1
    28   14   15 2
    29   15   16 1
    30   16   21 ar
    31   16   17 ar
    32   17   18 ar
    33   17   43 1
    34   18   19 ar
    35   18   44 1
    36   19   20 ar
    37   19   24 1
    38   20   21 ar
    39   20   45 1
    40   21   22 1
    41   22   23 1
    42   22   46 1
    43   22   47 1
    44   23   48 1
    45   23   49 1
    46   24   50 1
    47   25   51 1
    48   26   27 1
    49   27   28 1
    50   27   52 1
    51   27   53 1
    52   28   29 1
    53   28   54 1
    54   28   55 1
    55   29   34 1
    56   29   30 1
    57   29   66 1
    58   30   31 1
    59   30   56 1
    60   30   57 1
    61   31   32 1
    62   31   58 1
    63   31   59 1
    64   32   33 1
    65   32   60 1
    66   32   61 1
    67   33   34 1
    68   33   62 1
    69   33   63 1
    70   34   64 1
    71   34   65 1
