@<TRIPOS>MOLECULE
CHEMBL44
   30    32     0     0     0
SMALL
USER_CHARGES

@<TRIPOS>ATOM
      1 C1         -0.0168    1.3897    0.0097 C.ar      1 <0>        -0.0898
      2 C2          1.1691    2.0941    0.0021 C.ar      1 <0>        -0.1444
      3 C3          2.3804    1.4165   -0.0135 C.ar      1 <0>         0.1118
      4 C4          2.4026    0.0286   -0.0217 C.ar      1 <0>        -0.1437
      5 C5          1.2201   -0.6816   -0.0137 C.ar      1 <0>        -0.0707
      6 C6          0.0021   -0.0041    0.0020 C.ar      1 <0>        -0.0391
      7 C7         -1.2713   -0.7647    0.0106 C.2       1 <0>        -0.2383
      8 C8         -2.1308   -0.6985   -1.0391 C.2       1 <0>         0.1275
      9 O1         -3.2790   -1.3788   -1.0759 O.3       1 <0>        -0.2144
     10 C9         -3.8133   -1.9283    0.0323 C.ar      1 <0>         0.1753
     11 C10        -5.1371   -2.3448    0.0457 C.ar      1 <0>        -0.1819
     12 C11        -5.6741   -2.9171    1.1876 C.ar      1 <0>         0.1915
     13 C12        -4.9001   -3.0841    2.3313 C.ar      1 <0>        -0.2030
     14 C13        -3.5799   -2.6737    2.3405 C.ar      1 <0>         0.2179
     15 C14        -3.0336   -2.0875    1.1922 C.ar      1 <0>        -0.2616
     16 C15        -1.6367   -1.6192    1.1574 C.2       1 <0>         0.4330
     17 O2         -0.8325   -1.9156    2.0245 O.2       1 <0>        -0.4372
     18 O3         -2.8202   -2.8370    3.4529 O.3       1 <0>        -0.4757
     19 O4         -6.9707   -3.3190    1.1905 O.3       1 <0>        -0.4879
     20 O5          3.5472    2.1134   -0.0214 O.3       1 <0>        -0.4999
     21 H1         -0.9590    1.9174    0.0260 H         1 <0>         0.1287
     22 H2          1.1551    3.1740    0.0081 H         1 <0>         0.1326
     23 H3          3.3466   -0.4958   -0.0346 H         1 <0>         0.1325
     24 H4          1.2380   -1.7614   -0.0204 H         1 <0>         0.1278
     25 H5         -1.8749   -0.0692   -1.8787 H         1 <0>         0.2021
     26 H6         -5.7497   -2.2223   -0.8352 H         1 <0>         0.1539
     27 H7         -5.3310   -3.5346    3.2132 H         1 <0>         0.1504
     28 H8         -2.3502   -3.6814    3.4877 H         1 <0>         0.4050
     29 H9         -7.0993   -4.2345    0.9070 H         1 <0>         0.4041
     30 H10         3.8936    2.3103    0.8597 H         1 <0>         0.3934
@<TRIPOS>BOND
     1    1    6 ar
     2    1    2 ar
     3    1   21 1
     4    2    3 ar
     5    2   22 1
     6    3    4 ar
     7    3   20 1
     8    4    5 ar
     9    4   23 1
    10    5    6 ar
    11    5   24 1
    12    6    7 1
    13    7   16 1
    14    7    8 2
    15    8    9 1
    16    8   25 1
    17    9   10 1
    18   10   15 ar
    19   10   11 ar
    20   11   12 ar
    21   11   26 1
    22   12   13 ar
    23   12   19 1
    24   13   14 ar
    25   13   27 1
    26   14   15 ar
    27   14   18 1
    28   15   16 1
    29   16   17 2
    30   18   28 1
    31   19   29 1
    32   20   30 1
