@<TRIPOS>MOLECULE
CHEMBL195311
   30    32     0     0     0
SMALL
USER_CHARGES

@<TRIPOS>ATOM
      1 C1         -0.0170    1.4023    0.0098 C.ar      1 <0>        -0.1067
      2 C2          1.1501    2.0971    0.0023 C.ar      1 <0>        -0.0875
      3 C3          2.3855    1.4300   -0.0135 C.ar      1 <0>        -0.0501
      4 C4          2.4382    0.0483   -0.0218 C.ar      1 <0>        -0.0813
      5 C5          1.2443   -0.6884   -0.0140 C.ar      1 <0>        -0.0608
      6 C6          0.0021   -0.0041    0.0020 C.ar      1 <0>        -0.0303
      7 C7         -1.1913   -0.7445    0.0089 C.ar      1 <0>        -0.1375
      8 C8         -1.1404   -2.1094    0.0007 C.ar      1 <0>         0.1133
      9 C9          0.0856   -2.7821   -0.0141 C.ar      1 <0>        -0.1403
     10 C10         1.2590   -2.0952   -0.0226 C.ar      1 <0>        -0.0853
     11 O1         -2.2966   -2.8233    0.0074 O.3       1 <0>        -0.5001
     12 C11         3.6443    2.2139   -0.0218 C.ar      1 <0>        -0.0477
     13 C12         4.6587    1.9163    0.8871 C.ar      1 <0>        -0.0779
     14 C13         5.8280    2.6469    0.8770 C.ar      1 <0>        -0.1377
     15 C14         5.9964    3.6789   -0.0367 C.ar      1 <0>         0.1222
     16 C15         4.9892    3.9786   -0.9433 C.ar      1 <0>        -0.1362
     17 C16         3.8185    3.2470   -0.9428 C.ar      1 <0>        -0.0098
     18 Cl1         2.5616    3.6174   -2.0815 Cl        1 <0>        -0.0526
     19 O2          7.1498    4.3972   -0.0430 O.3       1 <0>        -0.4936
     20 H1         -0.9594    1.9296    0.0261 H         1 <0>         0.1311
     21 H2          1.1275    3.1769    0.0083 H         1 <0>         0.1270
     22 H3          3.3911   -0.4599   -0.0347 H         1 <0>         0.1315
     23 H4         -2.1446   -0.2371    0.0211 H         1 <0>         0.1345
     24 H5          0.1006   -3.8620   -0.0201 H         1 <0>         0.1312
     25 H6          2.1987   -2.6274   -0.0354 H         1 <0>         0.1334
     26 H7         -2.6395   -3.0249   -0.8740 H         1 <0>         0.3927
     27 H8          4.5286    1.1143    1.5987 H         1 <0>         0.1401
     28 H9          6.6139    2.4164    1.5811 H         1 <0>         0.1393
     29 H10         5.1232    4.7818   -1.6527 H         1 <0>         0.1428
     30 H11         7.8347    4.0364   -0.6225 H         1 <0>         0.3962
@<TRIPOS>BOND
     1    1    6 ar
     2    1    2 ar
     3    1   20 1
     4    2    3 ar
     5    2   21 1
     6    3    4 ar
     7    3   12 1
     8    4    5 ar
     9    4   22 1
    10    5   10 ar
    11    5    6 ar
    12    6    7 ar
    13    7    8 ar
    14    7   23 1
    15    8    9 ar
    16    8   11 1
    17    9   10 ar
    18    9   24 1
    19   10   25 1
    20   11   26 1
    21   12   17 ar
    22   12   13 ar
    23   13   14 ar
    24   13   27 1
    25   14   15 ar
    26   14   28 1
    27   15   16 ar
    28   15   19 1
    29   16   17 ar
    30   16   29 1
    31   17   18 1
    32   19   30 1
