@<TRIPOS>MOLECULE
CHEMBL383372
   72    76     0     0     0
SMALL
USER_CHARGES

@<TRIPOS>ATOM
      1 C1          1.4673    1.2409    0.5237 C.3       1 <0>        -0.1465
      2 C2          1.2719   -0.1139    1.2072 C.3       1 <0>        -0.0792
      3 C3         -0.1478   -0.5778    1.0063 C.2       1 <0>        -0.0545
      4 C4         -0.5459   -1.4060    0.0319 C.2       1 <0>        -0.0651
      5 C5         -2.0342   -1.6203    0.1790 C.3       1 <0>        -0.0319
      6 C6         -2.4441   -0.7990    1.3773 C.ar      1 <0>        -0.0900
      7 C7         -1.2814   -0.1873    1.8573 C.ar      1 <0>        -0.0600
      8 C8         -1.3593    0.6423    2.9820 C.ar      1 <0>        -0.0736
      9 C9         -2.5712    0.8446    3.6050 C.ar      1 <0>        -0.1339
     10 C10        -3.7187    0.2286    3.1230 C.ar      1 <0>         0.1152
     11 C11        -3.6504   -0.5893    2.0006 C.ar      1 <0>        -0.1226
     12 O1         -4.9103    0.4325    3.7430 O.3       1 <0>        -0.4933
     13 C12        -2.7546   -1.1389   -1.0540 C.2       1 <0>         0.5388
     14 O2         -2.1259   -0.6716   -1.9801 O.2       1 <0>        -0.4963
     15 N1         -4.0974   -1.2276   -1.1277 N.am      1 <0>        -0.6748
     16 C13        -4.7592   -0.8707   -2.3100 C.ar      1 <0>         0.1297
     17 C14        -5.8939   -1.5651   -2.7076 C.ar      1 <0>        -0.1039
     18 C15        -6.5459   -1.2125   -3.8727 C.ar      1 <0>        -0.1202
     19 C16        -6.0672   -0.1650   -4.6460 C.ar      1 <0>         0.0971
     20 C17        -4.9334    0.5289   -4.2495 C.ar      1 <0>        -0.1816
     21 C18        -4.2840    0.1814   -3.0815 C.ar      1 <0>        -0.0791
     22 O3         -6.7095    0.1814   -5.7933 O.3       1 <0>        -0.3286
     23 C19        -6.1617    1.2695   -6.5403 C.3       1 <0>         0.0258
     24 C20        -7.0127    1.5106   -7.7887 C.3       1 <0>        -0.0007
     25 N2         -8.3689    1.9077   -7.3877 N.4       1 <0>        -0.3838
     26 C21        -9.2291    1.9736   -8.5752 C.3       1 <0>        -0.0071
     27 C22       -10.6618    2.3077   -8.1541 C.3       1 <0>        -0.1465
     28 C23       -10.6748    3.6606   -7.4366 C.3       1 <0>        -0.1390
     29 C24        -9.7173    3.6035   -6.2429 C.3       1 <0>        -0.1452
     30 C25        -8.3196    3.2214   -6.7348 C.3       1 <0>        -0.0130
     31 C26         0.3166   -2.0032   -1.0027 C.ar      1 <0>        -0.0363
     32 C27         0.5188   -3.3859   -1.0345 C.ar      1 <0>        -0.0901
     33 C28         1.3259   -3.9399   -2.0044 C.ar      1 <0>        -0.1462
     34 C29         1.9384   -3.1265   -2.9491 C.ar      1 <0>         0.1114
     35 C30         1.7410   -1.7520   -2.9213 C.ar      1 <0>        -0.1477
     36 C31         0.9306   -1.1894   -1.9591 C.ar      1 <0>        -0.0625
     37 O4          2.7337   -3.6772   -3.9031 O.3       1 <0>        -0.4989
     38 H1          2.4941    1.5765    0.6690 H         1 <0>         0.0627
     39 H2          1.2647    1.1424   -0.5428 H         1 <0>         0.0565
     40 H3          0.7822    1.9691    0.9579 H         1 <0>         0.0551
     41 H4          1.9570   -0.8421    0.7730 H         1 <0>         0.0786
     42 H5          1.4745   -0.0154    2.2737 H         1 <0>         0.0764
     43 H6         -2.2479   -2.6748    0.3538 H         1 <0>         0.1328
     44 H7         -0.4698    1.1232    3.3613 H         1 <0>         0.1337
     45 H8         -2.6291    1.4851    4.4727 H         1 <0>         0.1374
     46 H9         -4.5426   -1.0692    1.6266 H         1 <0>         0.1266
     47 H10        -5.4086    1.1866    3.3992 H         1 <0>         0.3928
     48 H11        -4.6057   -1.5385   -0.3623 H         1 <0>         0.4121
     49 H12        -6.2662   -2.3811   -2.1060 H         1 <0>         0.1393
     50 H13        -7.4285   -1.7526   -4.1821 H         1 <0>         0.1374
     51 H14        -4.5609    1.3439   -4.8524 H         1 <0>         0.1299
     52 H15        -3.4040    0.7248   -2.7704 H         1 <0>         0.1465
     53 H16        -6.1584    2.1683   -5.9236 H         1 <0>         0.0857
     54 H17        -5.1409    1.0289   -6.8372 H         1 <0>         0.1091
     55 H18        -6.5638    2.3037   -8.3868 H         1 <0>         0.1486
     56 H19        -7.0614    0.5947   -8.3776 H         1 <0>         0.1424
     57 H20        -8.8592    2.7467   -9.2487 H         1 <0>         0.1290
     58 H21        -9.2163    1.0111   -9.0865 H         1 <0>         0.1310
     59 H22       -11.2985    2.3580   -9.0373 H         1 <0>         0.1129
     60 H23       -11.0327    1.5350   -7.4806 H         1 <0>         0.0879
     61 H24       -10.3525    4.4415   -8.1254 H         1 <0>         0.0820
     62 H25       -11.6835    3.8769   -7.0848 H         1 <0>         0.0946
     63 H26        -9.6788    4.5800   -5.7600 H         1 <0>         0.1120
     64 H27       -10.0686    2.8577   -5.5298 H         1 <0>         0.0878
     65 H28        -7.6353    3.1800   -5.8874 H         1 <0>         0.1274
     66 H29        -7.9691    3.9679   -7.4476 H         1 <0>         0.1300
     67 H30         0.0435   -4.0191   -0.3000 H         1 <0>         0.1265
     68 H31         1.4827   -5.0081   -2.0298 H         1 <0>         0.1310
     69 H32         2.2197   -1.1235   -3.6577 H         1 <0>         0.1296
     70 H33         0.7741   -0.1210   -1.9409 H         1 <0>         0.1277
     71 H34         2.2640   -3.9267   -4.7107 H         1 <0>         0.3915
     72 H35        -8.7409    1.2266   -6.7429 H         1 <0>         0.4295
@<TRIPOS>BOND
     1    1    2 1
     2    1   38 1
     3    1   39 1
     4    1   40 1
     5    2    3 1
     6    2   41 1
     7    2   42 1
     8    3    7 1
     9    3    4 2
    10    4    5 1
    11    4   31 1
    12    5    6 1
    13    5   13 1
    14    5   43 1
    15    6   11 ar
    16    6    7 ar
    17    7    8 ar
    18    8    9 ar
    19    8   44 1
    20    9   10 ar
    21    9   45 1
    22   10   11 ar
    23   10   12 1
    24   11   46 1
    25   12   47 1
    26   13   14 2
    27   13   15 am
    28   15   16 1
    29   15   48 1
    30   16   21 ar
    31   16   17 ar
    32   17   18 ar
    33   17   49 1
    34   18   19 ar
    35   18   50 1
    36   19   20 ar
    37   19   22 1
    38   20   21 ar
    39   20   51 1
    40   21   52 1
    41   22   23 1
    42   23   24 1
    43   23   53 1
    44   23   54 1
    45   24   25 1
    46   24   55 1
    47   24   56 1
    48   25   30 1
    49   25   26 1
    50   25   72 1
    51   26   27 1
    52   26   57 1
    53   26   58 1
    54   27   28 1
    55   27   59 1
    56   27   60 1
    57   28   29 1
    58   28   61 1
    59   28   62 1
    60   29   30 1
    61   29   63 1
    62   29   64 1
    63   30   65 1
    64   30   66 1
    65   31   36 ar
    66   31   32 ar
    67   32   33 ar
    68   32   67 1
    69   33   34 ar
    70   33   68 1
    71   34   35 ar
    72   34   37 1
    73   35   36 ar
    74   35   69 1
    75   36   70 1
    76   37   71 1
