@<TRIPOS>MOLECULE
CHEMBL7855
   32    35     0     0     0
SMALL
USER_CHARGES

@<TRIPOS>ATOM
      1 C1         -0.0164    1.3587    0.0095 C.ar      1 <0>        -0.1157
      2 C2          1.1669    2.0901    0.0021 C.ar      1 <0>        -0.1105
      3 C3          2.3777    1.4605   -0.0128 C.ar      1 <0>        -0.1072
      4 C4          2.4314    0.0637   -0.0207 C.ar      1 <0>        -0.0376
      5 C5          1.2302   -0.6834   -0.0133 C.ar      1 <0>        -0.0509
      6 C6          0.0021   -0.0041    0.0020 C.ar      1 <0>        -0.1027
      7 C7          1.2806   -2.0934   -0.0223 C.ar      1 <0>        -0.0957
      8 C8          2.4627   -2.7515   -0.0381 C.ar      1 <0>        -0.1056
      9 C9          3.6867   -2.0609   -0.0461 C.ar      1 <0>        -0.0340
     10 C10         3.7075   -0.6533   -0.0372 C.ar      1 <0>        -0.0337
     11 C11         4.9326    0.0365   -0.0447 C.ar      1 <0>        -0.0998
     12 C12         6.1141   -0.6225   -0.0601 C.ar      1 <0>        -0.0947
     13 C13         6.1643   -2.0323   -0.0687 C.ar      1 <0>        -0.0596
     14 C14         4.9628   -2.7795   -0.0633 C.ar      1 <0>        -0.0327
     15 C15         5.0109   -4.1757   -0.0724 C.ar      1 <0>        -0.0970
     16 C16         6.2158   -4.8170   -0.0883 C.ar      1 <0>        -0.1225
     17 C17         7.4077   -4.0958   -0.0958 C.ar      1 <0>         0.0841
     18 C18         7.3946   -2.7127   -0.0842 C.ar      1 <0>         0.0942
     19 O1          8.5622   -2.0167   -0.0917 O.3       1 <0>        -0.4849
     20 O2          8.5956   -4.7581   -0.1117 O.3       1 <0>        -0.4918
     21 H1         -0.9631    1.8782    0.0259 H         1 <0>         0.1258
     22 H2          1.1270    3.1693    0.0079 H         1 <0>         0.1265
     23 H3          3.2899    2.0386   -0.0187 H         1 <0>         0.1289
     24 H4         -0.9245   -0.5589    0.0082 H         1 <0>         0.1297
     25 H5          0.3595   -2.6573   -0.0161 H         1 <0>         0.1308
     26 H6          2.4657   -3.8315   -0.0443 H         1 <0>         0.1293
     27 H7          4.9305    1.1165   -0.0385 H         1 <0>         0.1302
     28 H8          7.0354   -0.0590   -0.0662 H         1 <0>         0.1342
     29 H9          4.0947   -4.7476   -0.0664 H         1 <0>         0.1367
     30 H10         6.2455   -5.8966   -0.0949 H         1 <0>         0.1379
     31 H11         8.9085   -1.8201    0.7895 H         1 <0>         0.3941
     32 H12         8.9303   -4.9442   -0.9997 H         1 <0>         0.3943
@<TRIPOS>BOND
     1    1    6 ar
     2    1    2 ar
     3    1   21 1
     4    2    3 ar
     5    2   22 1
     6    3    4 ar
     7    3   23 1
     8    4   10 ar
     9    4    5 ar
    10    5    6 ar
    11    5    7 ar
    12    6   24 1
    13    7    8 ar
    14    7   25 1
    15    8    9 ar
    16    8   26 1
    17    9   14 ar
    18    9   10 ar
    19   10   11 ar
    20   11   12 ar
    21   11   27 1
    22   12   13 ar
    23   12   28 1
    24   13   18 ar
    25   13   14 ar
    26   14   15 ar
    27   15   16 ar
    28   15   29 1
    29   16   17 ar
    30   16   30 1
    31   17   18 ar
    32   17   20 1
    33   18   19 1
    34   19   31 1
    35   20   32 1
