@<TRIPOS>MOLECULE
CHEMBL234638
   39    42     0     0     0
SMALL
USER_CHARGES

@<TRIPOS>ATOM
      1 C1         -0.0092    1.3607   -0.2014 C.ar      1 <0>        -0.0733
      2 C2          1.1793    2.0658   -0.2083 C.ar      1 <0>        -0.1779
      3 C3          2.3798    1.4022   -0.0142 C.ar      1 <0>         0.1395
      4 C4          2.3963    0.0251    0.1897 C.ar      1 <0>        -0.1690
      5 C5          1.2056   -0.6748    0.1978 C.ar      1 <0>         0.1443
      6 C6          0.0024   -0.0046    0.0002 C.ar      1 <0>        -0.1550
      7 O1          1.1745   -2.0184    0.3980 O.3       1 <0>        -0.3013
      8 C7          2.3688   -2.7444    0.1095 C.3       1 <0>         0.1427
      9 H1          2.5595   -2.7187   -0.9634 H         1 <0>         0.0797
     10 C8          3.5396   -2.1086    0.8490 C.3       1 <0>        -0.1165
     11 H2          4.4502   -2.6889    0.7007 H         1 <0>         0.0984
     12 C9          3.7277   -0.6488    0.3955 C.3       1 <0>        -0.0369
     13 H3          4.3342   -0.5965   -0.5087 H         1 <0>         0.0873
     14 C10         4.4309    0.0315    1.5915 C.3       1 <0>        -0.1119
     15 C11         4.1020   -0.8140    2.8344 C.3       1 <0>        -0.1254
     16 C12         3.2112   -1.9781    2.3524 C.3       1 <0>        -0.1160
     17 C13         2.2082   -4.1743    0.5573 C.ar      1 <0>        -0.0928
     18 C14         1.4718   -4.4639    1.6911 C.ar      1 <0>        -0.0736
     19 C15         1.3235   -5.7739    2.1039 C.ar      1 <0>        -0.1465
     20 C16         1.9138   -6.7993    1.3796 C.ar      1 <0>         0.1108
     21 C17         2.6518   -6.5061    0.2420 C.ar      1 <0>        -0.1446
     22 C18         2.7928   -5.1949   -0.1696 C.ar      1 <0>        -0.0898
     23 O2          1.7697   -8.0887    1.7839 O.3       1 <0>        -0.4998
     24 O3          3.5467    2.0985   -0.0234 O.3       1 <0>        -0.4918
     25 H4         -0.9458    1.8778   -0.3490 H         1 <0>         0.1338
     26 H5          1.1723    3.1343   -0.3654 H         1 <0>         0.1301
     27 H6         -0.9267   -0.5552    0.0048 H         1 <0>         0.1329
     28 H7          5.5085    0.0521    1.4285 H         1 <0>         0.0646
     29 H8          4.0528    1.0458    1.7193 H         1 <0>         0.0850
     30 H9          5.0199   -1.2040    3.2743 H         1 <0>         0.0635
     31 H10         3.5645   -0.2099    3.5654 H         1 <0>         0.0629
     32 H11         2.1579   -1.7354    2.4933 H         1 <0>         0.0720
     33 H12         3.4659   -2.8973    2.8799 H         1 <0>         0.0689
     34 H13         1.0124   -3.6653    2.2547 H         1 <0>         0.1319
     35 H14         0.7487   -5.9995    2.9900 H         1 <0>         0.1308
     36 H15         3.1123   -7.3026   -0.3236 H         1 <0>         0.1319
     37 H16         3.3635   -4.9666   -1.0575 H         1 <0>         0.1287
     38 H17         0.9979   -8.5346    1.4089 H         1 <0>         0.3928
     39 H18         3.9145    2.2382   -0.9067 H         1 <0>         0.3894
@<TRIPOS>BOND
     1    1    6 ar
     2    1    2 ar
     3    1   25 1
     4    2    3 ar
     5    2   26 1
     6    3    4 ar
     7    3   24 1
     8    4   12 1
     9    4    5 ar
    10    5    6 ar
    11    5    7 1
    12    6   27 1
    13    7    8 1
    14    8    9 1
    15    8   10 1
    16    8   17 1
    17   10   11 1
    18   10   16 1
    19   10   12 1
    20   12   13 1
    21   12   14 1
    22   14   15 1
    23   14   28 1
    24   14   29 1
    25   15   16 1
    26   15   30 1
    27   15   31 1
    28   16   32 1
    29   16   33 1
    30   17   22 ar
    31   17   18 ar
    32   18   19 ar
    33   18   34 1
    34   19   20 ar
    35   19   35 1
    36   20   21 ar
    37   20   23 1
    38   21   22 ar
    39   21   36 1
    40   22   37 1
    41   23   38 1
    42   24   39 1
