@<TRIPOS>MOLECULE
CHEMBL66279
   34    36     0     0     0
SMALL
USER_CHARGES

@<TRIPOS>ATOM
      1 C1         -0.0167    1.3768    0.0096 C.ar      1 <0>        -0.1112
      2 C2          1.1667    2.0887    0.0021 C.ar      1 <0>        -0.1092
      3 C3          2.3878    1.4161   -0.0136 C.ar      1 <0>        -0.0405
      4 C4          2.4128    0.0248   -0.0214 C.ar      1 <0>        -0.1020
      5 C5          1.2173   -0.6873   -0.0133 C.ar      1 <0>        -0.0405
      6 C6          0.0021   -0.0041    0.0020 C.ar      1 <0>        -0.1092
      7 C7          1.2359   -2.1709   -0.0220 C.ar      1 <0>        -0.0550
      8 C8          2.4507   -2.8539   -0.0323 C.ar      1 <0>        -0.0938
      9 C9          2.4648   -4.2329   -0.0399 C.ar      1 <0>        -0.1416
     10 C10         1.2705   -4.9407   -0.0372 C.ar      1 <0>         0.1073
     11 C11         0.0588   -4.2631   -0.0273 C.ar      1 <0>        -0.1417
     12 C12         0.0385   -2.8842   -0.0139 C.ar      1 <0>        -0.0929
     13 O1          1.2875   -6.2993   -0.0446 O.3       1 <0>        -0.4994
     14 C13         3.6584    2.1823   -0.0226 C.ar      1 <0>        -0.0550
     15 C14         4.8790    1.5101   -0.0442 C.ar      1 <0>        -0.0938
     16 C15         6.0583    2.2249   -0.0530 C.ar      1 <0>        -0.1416
     17 C16         6.0304    3.6129   -0.0404 C.ar      1 <0>         0.1073
     18 C17         4.8160    4.2853   -0.0184 C.ar      1 <0>        -0.1417
     19 C18         3.6334    3.5758   -0.0153 C.ar      1 <0>        -0.0929
     20 O2          7.1939    4.3146   -0.0491 O.3       1 <0>        -0.4993
     21 H1         -0.9603    1.9019    0.0260 H         1 <0>         0.1288
     22 H2          1.1461    3.1685    0.0081 H         1 <0>         0.1274
     23 H3          3.3564   -0.5003   -0.0339 H         1 <0>         0.1286
     24 H4         -0.9264   -0.5557    0.0079 H         1 <0>         0.1273
     25 H5          3.3801   -2.3038   -0.0348 H         1 <0>         0.1293
     26 H6          3.4059   -4.7628   -0.0483 H         1 <0>         0.1320
     27 H7         -0.8687   -4.8163   -0.0255 H         1 <0>         0.1321
     28 H8         -0.9043   -2.3576   -0.0013 H         1 <0>         0.1313
     29 H9          1.2972   -6.6974    0.8366 H         1 <0>         0.3926
     30 H10         4.9014    0.4303   -0.0537 H         1 <0>         0.1293
     31 H11         7.0045    1.7045   -0.0694 H         1 <0>         0.1319
     32 H12         4.7973    5.3651   -0.0083 H         1 <0>         0.1321
     33 H13         2.6889    4.0995   -0.0031 H         1 <0>         0.1313
     34 H14         7.5194    4.5255   -0.9349 H         1 <0>         0.3926
@<TRIPOS>BOND
     1    1    6 ar
     2    1    2 ar
     3    1   21 1
     4    2    3 ar
     5    2   22 1
     6    3    4 ar
     7    3   14 1
     8    4    5 ar
     9    4   23 1
    10    5    6 ar
    11    5    7 1
    12    6   24 1
    13    7   12 ar
    14    7    8 ar
    15    8    9 ar
    16    8   25 1
    17    9   10 ar
    18    9   26 1
    19   10   11 ar
    20   10   13 1
    21   11   12 ar
    22   11   27 1
    23   12   28 1
    24   13   29 1
    25   14   19 ar
    26   14   15 ar
    27   15   16 ar
    28   15   30 1
    29   16   17 ar
    30   16   31 1
    31   17   18 ar
    32   17   20 1
    33   18   19 ar
    34   18   32 1
    35   19   33 1
    36   20   34 1
