@<TRIPOS>MOLECULE
CHEMBL1086775
   65    70     0     0     0
SMALL
USER_CHARGES

@<TRIPOS>ATOM
      1 C1         -0.0164    1.3773   -0.0547 C.ar      1 <0>        -0.0575
      2 C2          1.1697    2.0854   -0.0624 C.ar      1 <0>        -0.1396
      3 C3          2.3801    1.4093   -0.0131 C.ar      1 <0>         0.1174
      4 C4          2.3960    0.0233    0.0439 C.ar      1 <0>        -0.1970
      5 C5          1.2071   -0.6802    0.0513 C.ar      1 <0>        -0.0637
      6 C6          0.0021   -0.0041    0.0020 C.ar      1 <0>        -0.1308
      7 C7         -1.2934   -0.7740    0.0107 C.3       1 <0>         0.1891
      8 H1         -2.0997   -0.1244   -0.3298 H         1 <0>         0.1332
      9 C8         -1.5866   -1.2357    1.4120 C.2       1 <0>        -0.1104
     10 C9         -1.1299   -2.4395    1.8287 C.2       1 <0>        -0.0385
     11 C10        -1.4430   -2.9122    3.2220 C.3       1 <0>        -0.1221
     12 C11        -0.6172   -2.1389    4.2485 C.3       1 <0>         0.0756
     13 O1         -0.6164   -0.7458    3.9658 O.3       1 <0>        -0.3252
     14 C12        -1.7993   -0.1682    3.6334 C.ar      1 <0>         0.1314
     15 C13        -2.3300   -0.3844    2.3504 C.ar      1 <0>        -0.0819
     16 C14        -3.5413    0.2038    1.9903 C.ar      1 <0>        -0.0748
     17 C15        -4.2148    0.9944    2.8985 C.ar      1 <0>        -0.1479
     18 C16        -3.6902    1.2050    4.1675 C.ar      1 <0>         0.1316
     19 C17        -2.4836    0.6237    4.5343 C.ar      1 <0>        -0.1585
     20 O2         -4.3618    1.9843    5.0550 O.3       1 <0>        -0.4956
     21 C18        -0.3531   -3.2590    0.8892 C.ar      1 <0>        -0.1306
     22 C19         0.4240   -4.3318    1.3187 C.ar      1 <0>        -0.0558
     23 C20         1.1362   -5.0712    0.3969 C.ar      1 <0>        -0.1692
     24 C21         1.0801   -4.7483   -0.9535 C.ar      1 <0>         0.1493
     25 C22         0.3073   -3.6806   -1.3900 C.ar      1 <0>        -0.1744
     26 C23        -0.4119   -2.9340   -0.4780 C.ar      1 <0>         0.1493
     27 O3         -1.1834   -1.8906   -0.8725 O.3       1 <0>        -0.2945
     28 O4          1.7866   -5.4821   -1.8527 O.3       1 <0>        -0.4959
     29 O5          3.5484    2.1036   -0.0209 O.3       1 <0>        -0.3244
     30 C24         4.7562    1.3418    0.0319 C.3       1 <0>         0.0273
     31 C25         5.9577    2.2889    0.0142 C.3       1 <0>         0.0016
     32 N1          5.9578    3.1027    1.2371 N.4       1 <0>        -0.3913
     33 C26         4.7806    3.9972    1.2396 C.3       1 <0>        -0.0017
     34 C27         5.2812    5.3080    1.8960 C.3       1 <0>        -0.1455
     35 C28         6.7259    5.4056    1.3390 C.3       1 <0>        -0.1418
     36 C29         7.1768    3.9309    1.2820 C.3       1 <0>        -0.0134
     37 H2         -0.9591    1.9033   -0.0886 H         1 <0>         0.1369
     38 H3          1.1547    3.1644   -0.1071 H         1 <0>         0.1350
     39 H4          3.3370   -0.5053    0.0820 H         1 <0>         0.1274
     40 H5          1.2189   -1.7592    0.0956 H         1 <0>         0.1330
     41 H6         -2.5030   -2.7588    3.4241 H         1 <0>         0.0865
     42 H7         -1.2123   -3.9745    3.3016 H         1 <0>         0.0953
     43 H8         -1.0379   -2.3016    5.2408 H         1 <0>         0.0654
     44 H9          0.4086   -2.5071    4.2319 H         1 <0>         0.1015
     45 H10        -3.9507    0.0417    1.0041 H         1 <0>         0.1360
     46 H11        -5.1532    1.4517    2.6216 H         1 <0>         0.1381
     47 H12        -2.0808    0.7910    5.5223 H         1 <0>         0.1386
     48 H13        -4.9888    1.4992    5.6087 H         1 <0>         0.3977
     49 H14         0.4693   -4.5834    2.3680 H         1 <0>         0.1359
     50 H15         1.7399   -5.9040    0.7262 H         1 <0>         0.1375
     51 H16         0.2687   -3.4345   -2.4409 H         1 <0>         0.1425
     52 H17         1.3004   -6.2360   -2.2138 H         1 <0>         0.4005
     53 H18         4.7731    0.7505    0.9474 H         1 <0>         0.0855
     54 H19         4.8046    0.6773   -0.8308 H         1 <0>         0.1090
     55 H20         6.8782    1.7071   -0.0352 H         1 <0>         0.1490
     56 H21         5.8932    2.9414   -0.8565 H         1 <0>         0.1406
     57 H22         4.4463    4.1872    0.2197 H         1 <0>         0.1376
     58 H23         3.9741    3.5614    1.8293 H         1 <0>         0.1342
     59 H24         4.6807    6.1593    1.5753 H         1 <0>         0.1162
     60 H25         5.2866    5.2232    2.9827 H         1 <0>         0.0968
     61 H26         6.7257    5.8473    0.3425 H         1 <0>         0.0985
     62 H27         7.3618    5.9772    2.0149 H         1 <0>         0.1123
     63 H28         7.7587    3.6864    2.1707 H         1 <0>         0.1323
     64 H29         7.7743    3.7601    0.3864 H         1 <0>         0.1316
     65 H30         5.9262    2.5009    2.0464 H         1 <0>         0.4245
@<TRIPOS>BOND
     1    1    6 ar
     2    1    2 ar
     3    1   37 1
     4    2    3 ar
     5    2   38 1
     6    3    4 ar
     7    3   29 1
     8    4    5 ar
     9    4   39 1
    10    5    6 ar
    11    5   40 1
    12    6    7 1
    13    7    8 1
    14    7   27 1
    15    7    9 1
    16    9   15 1
    17    9   10 2
    18   10   11 1
    19   10   21 1
    20   11   12 1
    21   11   41 1
    22   11   42 1
    23   12   13 1
    24   12   43 1
    25   12   44 1
    26   13   14 1
    27   14   19 ar
    28   14   15 ar
    29   15   16 ar
    30   16   17 ar
    31   16   45 1
    32   17   18 ar
    33   17   46 1
    34   18   19 ar
    35   18   20 1
    36   19   47 1
    37   20   48 1
    38   21   26 ar
    39   21   22 ar
    40   22   23 ar
    41   22   49 1
    42   23   24 ar
    43   23   50 1
    44   24   25 ar
    45   24   28 1
    46   25   26 ar
    47   25   51 1
    48   26   27 1
    49   28   52 1
    50   29   30 1
    51   30   31 1
    52   30   53 1
    53   30   54 1
    54   31   32 1
    55   31   55 1
    56   31   56 1
    57   32   36 1
    58   32   33 1
    59   32   65 1
    60   33   34 1
    61   33   57 1
    62   33   58 1
    63   34   35 1
    64   34   59 1
    65   34   60 1
    66   35   36 1
    67   35   61 1
    68   35   62 1
    69   36   63 1
    70   36   64 1
