@<TRIPOS>MOLECULE
CHEMBL221626
   39    42     0     0     0
SMALL
USER_CHARGES

@<TRIPOS>ATOM
      1 C1          6.5139   -2.4177   -2.7700 C.ar      1 <0>        -0.1078
      2 C2          5.4571   -3.1746   -2.2996 C.ar      1 <0>        -0.1234
      3 C3          4.5502   -2.6211   -1.4152 C.ar      1 <0>        -0.0895
      4 C4          4.7004   -1.3109   -1.0009 C.ar      1 <0>        -0.1194
      5 C5          5.7577   -0.5543   -1.4706 C.ar      1 <0>        -0.1024
      6 C6          6.6638   -1.1074   -2.3560 C.ar      1 <0>        -0.1234
      7 C7          3.7112   -0.7071   -0.0376 C.3       1 <0>         0.1701
      8 N1          4.0901   -1.0558    1.3340 N.pl3     1 <0>        -0.3854
      9 C8          4.8083   -0.2568    2.1867 C.ar      1 <0>         0.1401
     10 C9          4.9494   -0.9674    3.3924 C.ar      1 <0>        -0.1543
     11 C10         5.6460   -0.3943    4.4590 C.ar      1 <0>        -0.0332
     12 C11         6.1863    0.8525    4.3257 C.ar      1 <0>        -0.1479
     13 C12         6.0498    1.5591    3.1377 C.ar      1 <0>        -0.0549
     14 C13         5.3672    1.0151    2.0723 C.ar      1 <0>        -0.0609
     15 Cl1         5.2051    1.9087    0.5928 Cl        1 <0>        -0.0622
     16 C14         4.2630   -2.2490    3.1974 C.2       1 <0>         0.1393
     17 N2          3.7713   -2.2533    1.9822 N.2       1 <0>        -0.2265
     18 C15         4.1420   -3.3384    4.1950 C.ar      1 <0>        -0.0277
     19 C16         5.1853   -3.5895    5.0855 C.ar      1 <0>        -0.0769
     20 C17         5.0695   -4.6039    6.0124 C.ar      1 <0>        -0.1437
     21 C18         3.9160   -5.3751    6.0593 C.ar      1 <0>         0.1185
     22 C19         2.8756   -5.1281    5.1739 C.ar      1 <0>        -0.1445
     23 C20         2.9823   -4.1109    4.2489 C.ar      1 <0>        -0.0698
     24 O1          3.8053   -6.3743    6.9736 O.3       1 <0>        -0.4986
     25 H1          7.2249   -2.8516   -3.4574 H         1 <0>         0.1243
     26 H2          5.3397   -4.1982   -2.6233 H         1 <0>         0.1249
     27 H3          3.7241   -3.2122   -1.0483 H         1 <0>         0.1247
     28 H4          5.8748    0.4694   -1.1471 H         1 <0>         0.1253
     29 H5          7.4896   -0.5162   -2.7233 H         1 <0>         0.1246
     30 H6          3.7101    0.3771   -0.1497 H         1 <0>         0.1103
     31 H7          2.7148   -1.0952   -0.2491 H         1 <0>         0.1023
     32 H8          5.7567   -0.9359    5.3869 H         1 <0>         0.1356
     33 H9          6.7245    1.2936    5.1517 H         1 <0>         0.1400
     34 H10         6.4825    2.5446    3.0487 H         1 <0>         0.1428
     35 H11         6.0832   -2.9905    5.0490 H         1 <0>         0.1325
     36 H12         5.8772   -4.7989    6.7024 H         1 <0>         0.1357
     37 H13         1.9798   -5.7300    5.2128 H         1 <0>         0.1347
     38 H14         2.1706   -3.9161    3.5635 H         1 <0>         0.1328
     39 H15         3.4176   -6.0964    7.8148 H         1 <0>         0.3941
@<TRIPOS>BOND
     1    1    6 ar
     2    1    2 ar
     3    1   25 1
     4    2    3 ar
     5    2   26 1
     6    3    4 ar
     7    3   27 1
     8    4    5 ar
     9    4    7 1
    10    5    6 ar
    11    5   28 1
    12    6   29 1
    13    7    8 1
    14    7   30 1
    15    7   31 1
    16    8   17 1
    17    8    9 1
    18    9   14 ar
    19    9   10 ar
    20   10   11 ar
    21   10   16 1
    22   11   12 ar
    23   11   32 1
    24   12   13 ar
    25   12   33 1
    26   13   14 ar
    27   13   34 1
    28   14   15 1
    29   16   17 2
    30   16   18 1
    31   18   23 ar
    32   18   19 ar
    33   19   20 ar
    34   19   35 1
    35   20   21 ar
    36   20   36 1
    37   21   22 ar
    38   21   24 1
    39   22   23 ar
    40   22   37 1
    41   23   38 1
    42   24   39 1
