@<TRIPOS>MOLECULE
CHEMBL203860
   41    43     0     0     0
SMALL
USER_CHARGES

@<TRIPOS>ATOM
      1 C1         -0.1032    0.5883   -0.7234 C.ar      1 <0>        -0.1115
      2 C2          0.9449    1.4881   -0.7760 C.ar      1 <0>        -0.1179
      3 C3          2.2419    1.0506   -0.5829 C.ar      1 <0>        -0.1124
      4 C4          2.4907   -0.2867   -0.3365 C.ar      1 <0>        -0.1132
      5 C5          1.4426   -1.1863   -0.2830 C.ar      1 <0>        -0.0944
      6 C6          0.1457   -0.7490   -0.4776 C.ar      1 <0>        -0.1191
      7 C7          3.9048   -0.7638   -0.1269 C.3       1 <0>         0.1415
      8 N1          4.1905   -0.8288    1.3085 N.pl3     1 <0>        -0.9309
      9 C8          3.6855   -1.8823    2.0741 C.ar      1 <0>         0.1735
     10 C9          3.4478   -1.7050    3.4312 C.ar      1 <0>        -0.1592
     11 C10         2.9480   -2.7486    4.1851 C.ar      1 <0>        -0.0822
     12 C11         2.6847   -3.9691    3.5906 C.ar      1 <0>        -0.1401
     13 C12         2.9202   -4.1489    2.2399 C.ar      1 <0>        -0.0897
     14 C13         3.4145   -3.1078    1.4789 C.ar      1 <0>        -0.1467
     15 S1          5.1121    0.3467    2.0234 S.o2      1 <0>         2.6823
     16 O1          5.6838   -0.2365    3.1862 O.2       1 <0>        -0.9377
     17 O2          5.9026    0.9252    0.9939 O.2       1 <0>        -0.9428
     18 C14         4.0114    1.6049    2.5802 C.ar      1 <0>        -0.6876
     19 C15         3.5844    2.5857    1.7041 C.ar      1 <0>         0.0017
     20 C16         2.7219    3.5735    2.1384 C.ar      1 <0>        -0.1623
     21 C17         2.2837    3.5806    3.4547 C.ar      1 <0>         0.1703
     22 C18         2.7132    2.5952    4.3317 C.ar      1 <0>        -0.1633
     23 C19         3.5717    1.6066    3.8911 C.ar      1 <0>        -0.0040
     24 O3          1.4355    4.5516    3.8844 O.3       1 <0>        -0.4964
     25 H1         -1.1169    0.9309   -0.8699 H         1 <0>         0.1225
     26 H2          0.7505    2.5329   -0.9685 H         1 <0>         0.1234
     27 H3          3.0608    1.7535   -0.6247 H         1 <0>         0.1224
     28 H4          1.6371   -2.2312   -0.0909 H         1 <0>         0.1254
     29 H5         -0.6731   -1.4520   -0.4361 H         1 <0>         0.1235
     30 H6          4.0228   -1.7544   -0.5661 H         1 <0>         0.1024
     31 H7          4.5968   -0.0700   -0.6041 H         1 <0>         0.1137
     32 H8          3.6539   -0.7523    3.8962 H         1 <0>         0.1243
     33 H9          2.7630   -2.6115    5.2403 H         1 <0>         0.1291
     34 H10         2.2946   -4.7837    4.1827 H         1 <0>         0.1256
     35 H11         2.7134   -5.1034    1.7787 H         1 <0>         0.1281
     36 H12         3.5939   -3.2475    0.4231 H         1 <0>         0.1291
     37 H13         3.9258    2.5797    0.6795 H         1 <0>         0.1416
     38 H14         2.3892    4.3397    1.4539 H         1 <0>         0.1410
     39 H15         2.3736    2.5986    5.3569 H         1 <0>         0.1419
     40 H16         3.9030    0.8367    4.5723 H         1 <0>         0.1466
     41 H17         0.4998    4.3301    3.7818 H         1 <0>         0.4012
@<TRIPOS>BOND
     1    1    6 ar
     2    1    2 ar
     3    1   25 1
     4    2    3 ar
     5    2   26 1
     6    3    4 ar
     7    3   27 1
     8    4    5 ar
     9    4    7 1
    10    5    6 ar
    11    5   28 1
    12    6   29 1
    13    7    8 1
    14    7   30 1
    15    7   31 1
    16    8    9 1
    17    8   15 1
    18    9   14 ar
    19    9   10 ar
    20   10   11 ar
    21   10   32 1
    22   11   12 ar
    23   11   33 1
    24   12   13 ar
    25   12   34 1
    26   13   14 ar
    27   13   35 1
    28   14   36 1
    29   15   16 2
    30   15   17 2
    31   15   18 1
    32   18   23 ar
    33   18   19 ar
    34   19   20 ar
    35   19   37 1
    36   20   21 ar
    37   20   38 1
    38   21   22 ar
    39   21   24 1
    40   22   23 ar
    41   22   39 1
    42   23   40 1
    43   24   41 1
