@<TRIPOS>MOLECULE
CHEMBL426322
   62    67     0     0     0
SMALL
USER_CHARGES

@<TRIPOS>ATOM
      1 C1         -0.0167    1.3784    0.0096 C.ar      1 <0>        -0.0616
      2 C2          1.1695    2.0865    0.0021 C.ar      1 <0>        -0.1366
      3 C3          2.3802    1.4093   -0.0131 C.ar      1 <0>         0.1196
      4 C4          2.3963    0.0221   -0.0206 C.ar      1 <0>        -0.1972
      5 C5          1.2074   -0.6814   -0.0130 C.ar      1 <0>        -0.0660
      6 C6          0.0021   -0.0041    0.0020 C.ar      1 <0>        -0.1321
      7 C7         -1.2934   -0.7740    0.0107 C.3       1 <0>         0.1887
      8 C8         -1.6211   -1.2076   -1.3895 C.2       1 <0>        -0.0924
      9 C9         -1.1608   -2.3844   -1.8611 C.2       1 <0>        -0.0988
     10 C10        -1.4344   -2.7918   -3.2812 C.3       1 <0>         0.1133
     11 O1         -2.6753   -2.2496   -3.7320 O.3       1 <0>        -0.3025
     12 C11        -2.9334   -0.9437   -3.4661 C.ar      1 <0>         0.1532
     13 C12        -2.4367   -0.3713   -2.2828 C.ar      1 <0>        -0.1267
     14 C13        -2.7159    0.9592   -1.9798 C.ar      1 <0>        -0.0605
     15 C14        -3.4695    1.7153   -2.8542 C.ar      1 <0>        -0.1687
     16 C15        -3.9465    1.1541   -4.0321 C.ar      1 <0>         0.1529
     17 C16        -3.6793   -0.1741   -4.3373 C.ar      1 <0>        -0.1670
     18 O2         -4.6797    1.9095   -4.8911 O.3       1 <0>        -0.4922
     19 C17        -0.4124   -3.2588   -0.9453 C.ar      1 <0>        -0.1280
     20 C18         0.2995   -4.3619   -1.4118 C.ar      1 <0>        -0.0554
     21 C19         1.0021   -5.1474   -0.5213 C.ar      1 <0>        -0.1676
     22 C20         1.0017   -4.8403    0.8340 C.ar      1 <0>         0.1499
     23 C21         0.2892   -3.7469    1.3073 C.ar      1 <0>        -0.1730
     24 C22        -0.4246   -2.9570    0.4267 C.ar      1 <0>         0.1487
     25 O3         -1.1619   -1.9068    0.8699 O.3       1 <0>        -0.2909
     26 O4          1.7030   -5.6157    1.7017 O.3       1 <0>        -0.4901
     27 O5          3.5484    2.1036   -0.0209 O.3       1 <0>        -0.3267
     28 C23         4.7565    1.3405   -0.0365 C.3       1 <0>         0.0265
     29 C24         5.9580    2.2878   -0.0434 C.3       1 <0>         0.0040
     30 N1          5.9923    3.0443    1.2153 N.4       1 <0>        -0.3959
     31 C25         6.3189    2.1401    2.3476 C.3       1 <0>        -0.0106
     32 C26         6.8622    3.1078    3.4287 C.3       1 <0>        -0.1447
     33 C27         7.6591    4.1407    2.5992 C.3       1 <0>        -0.1450
     34 C28         7.0764    4.0497    1.1767 C.3       1 <0>        -0.0087
     35 H1         -0.9594    1.9052    0.0259 H         1 <0>         0.1387
     36 H2          1.1543    3.1664    0.0076 H         1 <0>         0.1380
     37 H3          3.3375   -0.5074   -0.0328 H         1 <0>         0.1288
     38 H4          1.2194   -1.7613   -0.0189 H         1 <0>         0.1341
     39 H5         -2.0909   -0.1311    0.3832 H         1 <0>         0.1361
     40 H6         -0.6301   -2.4275   -3.9204 H         1 <0>         0.0787
     41 H7         -1.4749   -3.8794   -3.3411 H         1 <0>         0.1223
     42 H8         -2.3447    1.3969   -1.0648 H         1 <0>         0.1305
     43 H9         -3.6890    2.7470   -2.6223 H         1 <0>         0.1379
     44 H10        -4.0534   -0.6042   -5.2546 H         1 <0>         0.1449
     45 H11        -4.1523    2.3730   -5.5559 H         1 <0>         0.3981
     46 H12         0.3011   -4.6010   -2.4650 H         1 <0>         0.1382
     47 H13         1.5541   -6.0041   -0.8788 H         1 <0>         0.1396
     48 H14         0.2931   -3.5140    2.3619 H         1 <0>         0.1435
     49 H15         2.6161   -5.3276    1.8370 H         1 <0>         0.3950
     50 H16         4.7979    0.7076    0.8500 H         1 <0>         0.0857
     51 H17         4.7806    0.7165   -0.9299 H         1 <0>         0.1082
     52 H18         6.8762    1.7093   -0.1448 H         1 <0>         0.1490
     53 H19         5.8702    2.9798   -0.8810 H         1 <0>         0.1417
     54 H20         5.4236    1.6298    2.7029 H         1 <0>         0.1331
     55 H21         7.0836    1.4199    2.0566 H         1 <0>         0.1349
     56 H22         6.0428    3.5904    3.9613 H         1 <0>         0.0986
     57 H23         7.5180    2.5819    4.1227 H         1 <0>         0.1176
     58 H24         7.5152    5.1427    3.0036 H         1 <0>         0.1060
     59 H25         8.7183    3.8835    2.5913 H         1 <0>         0.1047
     60 H26         7.8509    3.7340    0.4777 H         1 <0>         0.1315
     61 H27         6.6745    5.0177    0.8774 H         1 <0>         0.1332
     62 H28         5.1043    3.4961    1.3746 H         1 <0>         0.4335
@<TRIPOS>BOND
     1    1    6 ar
     2    1    2 ar
     3    1   35 1
     4    2    3 ar
     5    2   36 1
     6    3    4 ar
     7    3   27 1
     8    4    5 ar
     9    4   37 1
    10    5    6 ar
    11    5   38 1
    12    6    7 1
    13    7   25 1
    14    7    8 1
    15    7   39 1
    16    8   13 1
    17    8    9 2
    18    9   10 1
    19    9   19 1
    20   10   11 1
    21   10   40 1
    22   10   41 1
    23   11   12 1
    24   12   17 ar
    25   12   13 ar
    26   13   14 ar
    27   14   15 ar
    28   14   42 1
    29   15   16 ar
    30   15   43 1
    31   16   17 ar
    32   16   18 1
    33   17   44 1
    34   18   45 1
    35   19   24 ar
    36   19   20 ar
    37   20   21 ar
    38   20   46 1
    39   21   22 ar
    40   21   47 1
    41   22   23 ar
    42   22   26 1
    43   23   24 ar
    44   23   48 1
    45   24   25 1
    46   26   49 1
    47   27   28 1
    48   28   29 1
    49   28   50 1
    50   28   51 1
    51   29   30 1
    52   29   52 1
    53   29   53 1
    54   30   34 1
    55   30   31 1
    56   30   62 1
    57   31   32 1
    58   31   54 1
    59   31   55 1
    60   32   33 1
    61   32   56 1
    62   32   57 1
    63   33   34 1
    64   33   58 1
    65   33   59 1
    66   34   60 1
    67   34   61 1
