@<TRIPOS>MOLECULE
CHEMBL135739
   37    38     0     0     0
SMALL
USER_CHARGES

@<TRIPOS>ATOM
      1 C1         -1.5689   -0.3086   -0.4813 C.3       1 <0>        -0.1519
      2 C2         -0.0831   -0.1327   -0.1610 C.3       1 <0>        -0.1139
      3 C3          0.7542   -0.5944   -1.3554 C.3       1 <0>        -0.0351
      4 H1          0.4302   -0.0663   -2.2521 H         1 <0>         0.0911
      5 C4          0.5730   -2.0774   -1.5527 C.ar      1 <0>        -0.0918
      6 C5          0.9134   -2.9551   -0.5400 C.ar      1 <0>        -0.0970
      7 C6          0.7487   -4.3150   -0.7186 C.ar      1 <0>        -0.1418
      8 C7          0.2407   -4.7998   -1.9151 C.ar      1 <0>         0.1051
      9 C8         -0.1006   -3.9170   -2.9294 C.ar      1 <0>        -0.1417
     10 C9          0.0612   -2.5577   -2.7440 C.ar      1 <0>        -0.0937
     11 O1          0.0781   -6.1372   -2.0933 O.3       1 <0>        -0.4999
     12 C10         2.2304   -0.2918   -1.0907 C.3       1 <0>         0.0600
     13 H2          2.5427   -0.7837   -0.1695 H         1 <0>         0.1226
     14 C11         3.0424   -0.7904   -2.2127 C.1       1 <0>         0.2072
     15 N1          3.6689   -1.1752   -3.0786 N.1       1 <0>        -0.4163
     16 C12         2.4216    1.1969   -0.9549 C.ar      1 <0>        -0.0949
     17 C13         2.0600    2.0365   -1.9922 C.ar      1 <0>        -0.0878
     18 C14         2.2347    3.4015   -1.8704 C.ar      1 <0>        -0.1416
     19 C15         2.7728    3.9296   -0.7059 C.ar      1 <0>         0.1132
     20 C16         3.1343    3.0850    0.3337 C.ar      1 <0>        -0.1425
     21 C17         2.9529    1.7212    0.2089 C.ar      1 <0>        -0.0858
     22 O2          2.9460    5.2719   -0.5838 O.3       1 <0>        -0.4993
     23 H3         -1.8124    0.2427   -1.3895 H         1 <0>         0.0548
     24 H4         -1.7860   -1.3665   -0.6291 H         1 <0>         0.0565
     25 H5         -2.1667    0.0728    0.3465 H         1 <0>         0.0571
     26 H6          0.1228    0.9181    0.0426 H         1 <0>         0.0747
     27 H7          0.1729   -0.7294    0.7146 H         1 <0>         0.0703
     28 H8          1.3088   -2.5772    0.3913 H         1 <0>         0.1287
     29 H9          1.0154   -5.0002    0.0725 H         1 <0>         0.1297
     30 H10        -0.4962   -4.2920   -3.8618 H         1 <0>         0.1288
     31 H11        -0.2084   -1.8698   -3.5317 H         1 <0>         0.1253
     32 H12        -0.7885   -6.4680   -1.8198 H         1 <0>         0.3916
     33 H13         1.6411    1.6249   -2.8986 H         1 <0>         0.1267
     34 H14         1.9528    4.0569   -2.6812 H         1 <0>         0.1317
     35 H15         3.5535    3.4937    1.2412 H         1 <0>         0.1331
     36 H16         3.2301    1.0636    1.0196 H         1 <0>         0.1332
     37 H17         2.1847    5.7341   -0.2069 H         1 <0>         0.3936
@<TRIPOS>BOND
     1    1    2 1
     2    1   23 1
     3    1   24 1
     4    1   25 1
     5    2    3 1
     6    2   26 1
     7    2   27 1
     8    3    4 1
     9    3    5 1
    10    3   12 1
    11    5   10 ar
    12    5    6 ar
    13    6    7 ar
    14    6   28 1
    15    7    8 ar
    16    7   29 1
    17    8    9 ar
    18    8   11 1
    19    9   10 ar
    20    9   30 1
    21   10   31 1
    22   11   32 1
    23   12   13 1
    24   12   14 1
    25   12   16 1
    26   14   15 3
    27   16   21 ar
    28   16   17 ar
    29   17   18 ar
    30   17   33 1
    31   18   19 ar
    32   18   34 1
    33   19   20 ar
    34   19   22 1
    35   20   21 ar
    36   20   35 1
    37   21   36 1
    38   22   37 1
