@<TRIPOS>MOLECULE
CHEMBL420244
   65    69     0     0     0
SMALL
USER_CHARGES

@<TRIPOS>ATOM
      1 C1          8.0749   -5.9183   -0.5288 C.ar      1 <0>        -0.0609
      2 C2          6.7187   -6.1662   -0.4282 C.ar      1 <0>        -0.1418
      3 C3          5.8254   -5.1126   -0.3762 C.ar      1 <0>        -0.0259
      4 C4          6.2883   -3.8109   -0.4242 C.ar      1 <0>        -0.6782
      5 C5          7.6446   -3.5630   -0.5238 C.ar      1 <0>        -0.0220
      6 C6          8.5378   -4.6166   -0.5773 C.ar      1 <0>        -0.1352
      7 S1          5.1496   -2.4679   -0.3591 S.o2      1 <0>         2.6842
      8 O1          5.7461   -1.3947   -1.0743 O.2       1 <0>        -0.9529
      9 O2          3.8766   -2.9978   -0.7024 O.2       1 <0>        -0.9359
     10 N1          5.0509   -1.9859    1.2221 N.pl3     1 <0>        -0.9929
     11 C7          6.0067   -1.0203    1.7893 C.3       1 <0>         0.1202
     12 C8          5.2295    0.2361    2.1786 C.3       1 <0>        -0.1002
     13 C9          3.9891   -0.1198    2.9551 C.ar      1 <0>        -0.0441
     14 C10         3.4125    0.8735    3.7362 C.ar      1 <0>        -0.1466
     15 C11         2.2656    0.6164    4.4671 C.ar      1 <0>         0.1175
     16 C12         1.6869   -0.6438    4.4179 C.ar      1 <0>        -0.1458
     17 C13         2.2630   -1.6293    3.6450 C.ar      1 <0>        -0.0862
     18 C14         3.4169   -1.3719    2.9164 C.ar      1 <0>        -0.1038
     19 C15         4.0041   -2.4993    2.1121 C.3       1 <0>         0.2441
     20 C16         2.9191   -3.1454    1.2896 C.ar      1 <0>        -0.1020
     21 C17         1.9614   -2.3617    0.6729 C.ar      1 <0>        -0.0239
     22 C18         0.9655   -2.9516   -0.0813 C.ar      1 <0>        -0.1285
     23 C19         0.9272   -4.3314   -0.2200 C.ar      1 <0>         0.1242
     24 C20         1.8896   -5.1154    0.3994 C.ar      1 <0>        -0.1943
     25 C21         2.8864   -4.5204    1.1482 C.ar      1 <0>        -0.0640
     26 O3         -0.0517   -4.9141   -0.9610 O.3       1 <0>        -0.3306
     27 C22        -0.0290   -6.3394   -1.0600 C.3       1 <0>         0.0277
     28 C23        -1.1987   -6.8091   -1.9272 C.3       1 <0>         0.0036
     29 N2         -1.0169   -6.3211   -3.3008 N.4       1 <0>        -0.3957
     30 C24         0.1355   -7.0068   -3.9396 C.3       1 <0>        -0.0106
     31 C25        -0.1457   -6.8367   -5.4537 C.3       1 <0>        -0.1450
     32 C26        -1.6820   -6.9868   -5.5390 C.3       1 <0>        -0.1449
     33 C27        -2.1968   -6.6638   -4.1241 C.3       1 <0>        -0.0086
     34 O4          1.7090    1.5938    5.2299 O.3       1 <0>        -0.4979
     35 H1          8.7732   -6.7414   -0.5649 H         1 <0>         0.1338
     36 H2          6.3570   -7.1832   -0.3907 H         1 <0>         0.1317
     37 H3          4.7658   -5.3063   -0.2984 H         1 <0>         0.1380
     38 H4          8.0063   -2.5460   -0.5617 H         1 <0>         0.1377
     39 H5          9.5974   -4.4229   -0.6555 H         1 <0>         0.1365
     40 H6          6.4829   -1.4477    2.6717 H         1 <0>         0.0838
     41 H7          6.7634   -0.7703    1.0456 H         1 <0>         0.0986
     42 H8          5.8651    0.8752    2.7916 H         1 <0>         0.0952
     43 H9          4.9446    0.7757    1.2754 H         1 <0>         0.0886
     44 H10         3.8625    1.8545    3.7734 H         1 <0>         0.1322
     45 H11         0.7895   -0.8513    4.9818 H         1 <0>         0.1317
     46 H12         1.8130   -2.6103    3.6059 H         1 <0>         0.1278
     47 H13         4.4336   -3.2379    2.7889 H         1 <0>         0.0969
     48 H14         1.9916   -1.2876    0.7812 H         1 <0>         0.1257
     49 H15         0.2172   -2.3390   -0.5622 H         1 <0>         0.1270
     50 H16         1.8619   -6.1898    0.2930 H         1 <0>         0.1226
     51 H17         3.6385   -5.1300    1.6270 H         1 <0>         0.1246
     52 H18         0.9100   -6.6572   -1.5135 H         1 <0>         0.0843
     53 H19        -0.1171   -6.7743   -0.0645 H         1 <0>         0.1069
     54 H20        -1.2342   -7.8986   -1.9303 H         1 <0>         0.1471
     55 H21        -2.1316   -6.4165   -1.5226 H         1 <0>         0.1406
     56 H22         1.0722   -6.5214   -3.6653 H         1 <0>         0.1342
     57 H23         0.1540   -8.0622   -3.6679 H         1 <0>         0.1342
     58 H24         0.1650   -5.8493   -5.7952 H         1 <0>         0.0986
     59 H25         0.3508   -7.6186   -6.0284 H         1 <0>         0.1168
     60 H26        -2.0916   -6.2805   -6.2611 H         1 <0>         0.1054
     61 H27        -1.9477   -8.0074   -5.8144 H         1 <0>         0.1040
     62 H28        -2.7020   -7.5340   -3.7051 H         1 <0>         0.1310
     63 H29        -2.8815   -5.8165   -4.1626 H         1 <0>         0.1327
     64 H30         1.0535    2.1309    4.7642 H         1 <0>         0.3942
     65 H31        -0.8717   -5.3227   -3.2994 H         1 <0>         0.4345
@<TRIPOS>BOND
     1    1    6 ar
     2    1    2 ar
     3    1   35 1
     4    2    3 ar
     5    2   36 1
     6    3    4 ar
     7    3   37 1
     8    4    5 ar
     9    4    7 1
    10    5    6 ar
    11    5   38 1
    12    6   39 1
    13    7    8 2
    14    7    9 2
    15    7   10 1
    16   10   19 1
    17   10   11 1
    18   11   12 1
    19   11   40 1
    20   11   41 1
    21   12   13 1
    22   12   42 1
    23   12   43 1
    24   13   18 ar
    25   13   14 ar
    26   14   15 ar
    27   14   44 1
    28   15   16 ar
    29   15   34 1
    30   16   17 ar
    31   16   45 1
    32   17   18 ar
    33   17   46 1
    34   18   19 1
    35   19   20 1
    36   19   47 1
    37   20   25 ar
    38   20   21 ar
    39   21   22 ar
    40   21   48 1
    41   22   23 ar
    42   22   49 1
    43   23   24 ar
    44   23   26 1
    45   24   25 ar
    46   24   50 1
    47   25   51 1
    48   26   27 1
    49   27   28 1
    50   27   52 1
    51   27   53 1
    52   28   29 1
    53   28   54 1
    54   28   55 1
    55   29   33 1
    56   29   30 1
    57   29   65 1
    58   30   31 1
    59   30   56 1
    60   30   57 1
    61   31   32 1
    62   31   58 1
    63   31   59 1
    64   32   33 1
    65   32   60 1
    66   32   61 1
    67   33   62 1
    68   33   63 1
    69   34   64 1
