@<TRIPOS>MOLECULE
CHEMBL94280
   65    69     0     0     0
SMALL
USER_CHARGES

@<TRIPOS>ATOM
      1 C1         -0.0167    1.3781    0.0096 C.ar      1 <0>        -0.1163
      2 C2          1.1709    2.0855    0.0021 C.ar      1 <0>        -0.1169
      3 C3          2.3773    1.4107   -0.0130 C.ar      1 <0>        -0.1151
      4 C4          2.3960    0.0285   -0.0201 C.ar      1 <0>        -0.0799
      5 C5          1.2084   -0.6789   -0.0117 C.ar      1 <0>        -0.0993
      6 C6          0.0021   -0.0041    0.0020 C.ar      1 <0>        -0.1204
      7 C7          3.7112   -0.7071   -0.0376 C.3       1 <0>         0.0931
      8 N1          4.1530   -0.9531    1.3416 N.3       1 <0>        -0.5189
      9 C8          4.4891    0.3085    2.0206 C.3       1 <0>         0.0458
     10 C9          4.5815    0.0413    3.5232 C.3       1 <0>        -0.0783
     11 C10         5.4764   -1.1438    3.7809 C.ar      1 <0>        -0.0435
     12 C11         5.9732   -1.3295    5.0614 C.ar      1 <0>        -0.1465
     13 C12         6.7962   -2.4078    5.3423 C.ar      1 <0>         0.1141
     14 C13         7.1221   -3.3049    4.3352 C.ar      1 <0>        -0.1491
     15 C14         6.6268   -3.1160    3.0620 C.ar      1 <0>        -0.0921
     16 C15         5.8047   -2.0340    2.7804 C.ar      1 <0>        -0.0863
     17 C16         5.2994   -1.8667    1.3711 C.3       1 <0>         0.1693
     18 C17         4.8795   -3.2093    0.8306 C.ar      1 <0>        -0.0932
     19 C18         3.6384   -3.7258    1.1539 C.ar      1 <0>        -0.0431
     20 C19         3.2512   -4.9566    0.6601 C.ar      1 <0>        -0.1437
     21 C20         4.1088   -5.6741   -0.1612 C.ar      1 <0>         0.1134
     22 C21         5.3534   -5.1534   -0.4844 C.ar      1 <0>        -0.2023
     23 C22         5.7337   -3.9199    0.0078 C.ar      1 <0>        -0.0762
     24 O1          3.7304   -6.8852   -0.6478 O.3       1 <0>        -0.3288
     25 C23         4.6642   -7.5677   -1.4871 C.3       1 <0>         0.0276
     26 C24         4.0664   -8.9030   -1.9347 C.3       1 <0>         0.0037
     27 N2          2.8921   -8.6545   -2.7816 N.4       1 <0>        -0.3956
     28 C25         3.3107   -8.0550   -4.0745 C.3       1 <0>        -0.0103
     29 C26         2.1231   -8.3776   -5.0159 C.3       1 <0>        -0.1447
     30 C27         1.6971   -9.7928   -4.5625 C.3       1 <0>        -0.1450
     31 C28         2.2313   -9.9324   -3.1249 C.3       1 <0>        -0.0087
     32 O2          7.2827   -2.5860    6.5987 O.3       1 <0>        -0.4984
     33 H1         -0.9591    1.9053    0.0259 H         1 <0>         0.1226
     34 H2          1.1563    3.1654    0.0076 H         1 <0>         0.1234
     35 H3          3.3051    1.9634   -0.0196 H         1 <0>         0.1195
     36 H4          1.2231   -1.7588   -0.0176 H         1 <0>         0.1178
     37 H5         -0.9258   -0.5567    0.0082 H         1 <0>         0.1212
     38 H6          3.5884   -1.6586   -0.5549 H         1 <0>         0.0840
     39 H7          4.4573   -0.1052   -0.5563 H         1 <0>         0.0458
     40 H8          5.4473    0.6774    1.6547 H         1 <0>         0.0432
     41 H9          3.7111    1.0470    1.8272 H         1 <0>         0.0930
     42 H10         4.9912    0.9194    4.0223 H         1 <0>         0.0835
     43 H11         3.5859   -0.1649    3.9160 H         1 <0>         0.0882
     44 H12         5.7178   -0.6301    5.8436 H         1 <0>         0.1308
     45 H13         7.7621   -4.1485    4.5476 H         1 <0>         0.1286
     46 H14         6.8807   -3.8148    2.2786 H         1 <0>         0.1227
     47 H15         6.0976   -1.4625    0.7485 H         1 <0>         0.0632
     48 H16         2.9712   -3.1669    1.7932 H         1 <0>         0.1440
     49 H17         2.2819   -5.3600    0.9134 H         1 <0>         0.1320
     50 H18         6.0227   -5.7101   -1.1235 H         1 <0>         0.1266
     51 H19         6.7007   -3.5121   -0.2471 H         1 <0>         0.1291
     52 H20         4.8812   -6.9552   -2.3622 H         1 <0>         0.0847
     53 H21         5.5852   -7.7493   -0.9333 H         1 <0>         0.1077
     54 H22         4.8109   -9.4627   -2.5010 H         1 <0>         0.1482
     55 H23         3.7675   -9.4790   -1.0590 H         1 <0>         0.1411
     56 H24         3.4408   -6.9774   -3.9747 H         1 <0>         0.1332
     57 H25         4.2265   -8.5222   -4.4366 H         1 <0>         0.1347
     58 H26         1.3111   -7.6651   -4.8704 H         1 <0>         0.0984
     59 H27         2.4474   -8.3872   -6.0565 H         1 <0>         0.1173
     60 H28         0.6108   -9.8823   -4.5727 H         1 <0>         0.1057
     61 H29         2.1458  -10.5479   -5.2078 H         1 <0>         0.1044
     62 H30         2.9521  -10.7485   -3.0742 H         1 <0>         0.1313
     63 H31         1.4056  -10.1195   -2.4385 H         1 <0>         0.1330
     64 H32         6.7155   -3.1245    7.1674 H         1 <0>         0.3932
     65 H33         2.2437   -8.0439   -2.3076 H         1 <0>         0.4336
@<TRIPOS>BOND
     1    1    6 ar
     2    1    2 ar
     3    1   33 1
     4    2    3 ar
     5    2   34 1
     6    3    4 ar
     7    3   35 1
     8    4    5 ar
     9    4    7 1
    10    5    6 ar
    11    5   36 1
    12    6   37 1
    13    7    8 1
    14    7   38 1
    15    7   39 1
    16    8   17 1
    17    8    9 1
    18    9   10 1
    19    9   40 1
    20    9   41 1
    21   10   11 1
    22   10   42 1
    23   10   43 1
    24   11   16 ar
    25   11   12 ar
    26   12   13 ar
    27   12   44 1
    28   13   14 ar
    29   13   32 1
    30   14   15 ar
    31   14   45 1
    32   15   16 ar
    33   15   46 1
    34   16   17 1
    35   17   18 1
    36   17   47 1
    37   18   23 ar
    38   18   19 ar
    39   19   20 ar
    40   19   48 1
    41   20   21 ar
    42   20   49 1
    43   21   22 ar
    44   21   24 1
    45   22   23 ar
    46   22   50 1
    47   23   51 1
    48   24   25 1
    49   25   26 1
    50   25   52 1
    51   25   53 1
    52   26   27 1
    53   26   54 1
    54   26   55 1
    55   27   31 1
    56   27   28 1
    57   27   65 1
    58   28   29 1
    59   28   56 1
    60   28   57 1
    61   29   30 1
    62   29   58 1
    63   29   59 1
    64   30   31 1
    65   30   60 1
    66   30   61 1
    67   31   62 1
    68   31   63 1
    69   32   64 1
