@<TRIPOS>MOLECULE
CHEMBL181368
   71    75     0     0     0
SMALL
USER_CHARGES

@<TRIPOS>ATOM
      1 C1          0.4309    2.0652   -0.0014 C.3       1 <0>        -0.1489
      2 C2          0.5492    0.5426   -0.0947 C.3       1 <0>        -0.0422
      3 H1          1.1497    0.2782   -0.9651 H         1 <0>         0.0991
      4 C3         -0.8260   -0.0600   -0.2321 C.ar      1 <0>        -0.1786
      5 C4         -1.4650   -0.6515    0.8437 C.ar      1 <0>         0.1555
      6 C5         -2.7358   -1.1922    0.6803 C.ar      1 <0>        -0.1417
      7 C6         -3.3609   -1.1446   -0.5496 C.ar      1 <0>        -0.0801
      8 C7         -2.7206   -0.5555   -1.6283 C.ar      1 <0>         0.0463
      9 C8         -1.4531   -0.0137   -1.4674 C.ar      1 <0>         0.1107
     10 F1         -0.8284    0.5612   -2.5183 F         1 <0>        -0.1232
     11 O1         -3.3329   -0.5088   -2.8422 O.3       1 <0>        -0.4837
     12 O2         -0.8812   -0.7283    2.0690 O.3       1 <0>        -0.2935
     13 C9          0.2310    0.1277    2.3336 C.3       1 <0>         0.1416
     14 H2         -0.1115    1.1592    2.4172 H         1 <0>         0.0925
     15 C10         1.2224    0.0055    1.1707 C.3       1 <0>        -0.0690
     16 H3          2.1161    0.5905    1.3880 H         1 <0>         0.1053
     17 C11         1.5969   -1.4406    0.9722 C.ar      1 <0>        -0.0893
     18 C12         0.7822   -2.2676    0.2211 C.ar      1 <0>        -0.1010
     19 C13         1.1230   -3.5938    0.0380 C.ar      1 <0>        -0.1406
     20 C14         2.2840   -4.0955    0.6081 C.ar      1 <0>         0.1098
     21 C15         3.0999   -3.2636    1.3610 C.ar      1 <0>        -0.1475
     22 C16         2.7574   -1.9369    1.5368 C.ar      1 <0>        -0.0900
     23 O3          2.6211   -5.3999    0.4299 O.3       1 <0>        -0.5007
     24 C17         0.8993   -0.2907    3.6178 C.ar      1 <0>        -0.1064
     25 C18         1.0568   -1.6333    3.9082 C.ar      1 <0>        -0.0365
     26 C19         1.6686   -2.0195    5.0850 C.ar      1 <0>        -0.1420
     27 C20         2.1256   -1.0589    5.9756 C.ar      1 <0>         0.1212
     28 C21         1.9668    0.2876    5.6817 C.ar      1 <0>        -0.2043
     29 C22         1.3589    0.6686    4.5011 C.ar      1 <0>        -0.0617
     30 O4          2.7275   -1.4363    7.1341 O.3       1 <0>        -0.3274
     31 C23         3.1731   -0.3933    8.0034 C.3       1 <0>         0.0239
     32 C24         3.8199   -1.0071    9.2467 C.3       1 <0>        -0.0082
     33 N1          5.0297   -1.7433    8.8564 N.4       1 <0>        -0.3673
     34 C25         5.4956   -2.5346   10.0118 C.3       1 <0>        -0.0035
     35 C26         6.3033   -3.6983    9.4940 C.3       1 <0>        -0.1502
     36 C27         7.8115   -3.3867    9.5053 C.3       1 <0>        -0.1310
     37 C28         8.1012   -1.9438    9.0449 C.3       1 <0>        -0.1388
     38 C29         7.2497   -1.5337    7.8707 C.3       1 <0>        -0.1342
     39 C30         5.9785   -0.8310    8.3915 C.3       1 <0>        -0.0396
     40 H4          1.4249    2.5016    0.0964 H         1 <0>         0.0682
     41 H5         -0.0471    2.4484   -0.9029 H         1 <0>         0.0672
     42 H6         -0.1695    2.3303    0.8689 H         1 <0>         0.0583
     43 H7         -3.2364   -1.6513    1.5200 H         1 <0>         0.1449
     44 H8         -4.3477   -1.5663   -0.6712 H         1 <0>         0.1499
     45 H9         -3.8699    0.2833   -2.9817 H         1 <0>         0.3932
     46 H10        -0.1215   -1.8766   -0.2225 H         1 <0>         0.1379
     47 H11         0.4860   -4.2395   -0.5482 H         1 <0>         0.1292
     48 H12         4.0042   -3.6518    1.8059 H         1 <0>         0.1260
     49 H13         3.3945   -1.2877    2.1191 H         1 <0>         0.1209
     50 H14         3.1697   -5.5613   -0.3499 H         1 <0>         0.3939
     51 H15         0.7008   -2.3807    3.2146 H         1 <0>         0.1386
     52 H16         1.7908   -3.0684    5.3117 H         1 <0>         0.1339
     53 H17         2.3217    1.0373    6.3733 H         1 <0>         0.1299
     54 H18         1.2389    1.7167    4.2698 H         1 <0>         0.1331
     55 H19         3.9028    0.2267    7.4827 H         1 <0>         0.0872
     56 H20         2.3224    0.2196    8.3014 H         1 <0>         0.1105
     57 H21         4.0865   -0.2148    9.9462 H         1 <0>         0.1503
     58 H22         3.1164   -1.6903    9.7225 H         1 <0>         0.1448
     59 H23         6.1178   -1.9131   10.6558 H         1 <0>         0.1338
     60 H24         4.6379   -2.9039   10.5741 H         1 <0>         0.1351
     61 H25         6.1148   -4.5699   10.1208 H         1 <0>         0.1090
     62 H26         5.9931   -3.9212    8.4732 H         1 <0>         0.0823
     63 H27         8.1943   -3.5204   10.5171 H         1 <0>         0.0806
     64 H28         8.3227   -4.0816    8.8390 H         1 <0>         0.0818
     65 H29         7.9097   -1.2633    9.8746 H         1 <0>         0.0693
     66 H30         9.1514   -1.8673    8.7632 H         1 <0>         0.0866
     67 H31         7.8106   -0.8485    7.2351 H         1 <0>         0.1088
     68 H32         6.9690   -2.4174    7.2976 H         1 <0>         0.0875
     69 H33         5.5408   -0.2455    7.5830 H         1 <0>         0.1277
     70 H34         6.2529   -0.1595    9.2050 H         1 <0>         0.1288
     71 H35         4.7947   -2.3762    8.1065 H         1 <0>         0.4259
@<TRIPOS>BOND
     1    1    2 1
     2    1   40 1
     3    1   41 1
     4    1   42 1
     5    2    3 1
     6    2   15 1
     7    2    4 1
     8    4    9 ar
     9    4    5 ar
    10    5    6 ar
    11    5   12 1
    12    6    7 ar
    13    6   43 1
    14    7    8 ar
    15    7   44 1
    16    8    9 ar
    17    8   11 1
    18    9   10 1
    19   11   45 1
    20   12   13 1
    21   13   14 1
    22   13   15 1
    23   13   24 1
    24   15   16 1
    25   15   17 1
    26   17   22 ar
    27   17   18 ar
    28   18   19 ar
    29   18   46 1
    30   19   20 ar
    31   19   47 1
    32   20   21 ar
    33   20   23 1
    34   21   22 ar
    35   21   48 1
    36   22   49 1
    37   23   50 1
    38   24   29 ar
    39   24   25 ar
    40   25   26 ar
    41   25   51 1
    42   26   27 ar
    43   26   52 1
    44   27   28 ar
    45   27   30 1
    46   28   29 ar
    47   28   53 1
    48   29   54 1
    49   30   31 1
    50   31   32 1
    51   31   55 1
    52   31   56 1
    53   32   33 1
    54   32   57 1
    55   32   58 1
    56   33   39 1
    57   33   34 1
    58   33   71 1
    59   34   35 1
    60   34   59 1
    61   34   60 1
    62   35   36 1
    63   35   61 1
    64   35   62 1
    65   36   37 1
    66   36   63 1
    67   36   64 1
    68   37   38 1
    69   37   65 1
    70   37   66 1
    71   38   39 1
    72   38   67 1
    73   38   68 1
    74   39   69 1
    75   39   70 1
