@<TRIPOS>MOLECULE
CHEMBL299942
   64    68     0     0     0
SMALL
USER_CHARGES

@<TRIPOS>ATOM
      1 C1          2.3759    3.3389    0.1745 C.ar      1 <0>        -0.1182
      2 C2          1.5519    2.2432    0.3512 C.ar      1 <0>        -0.1218
      3 C3          2.0702    0.9655    0.2528 C.ar      1 <0>        -0.1165
      4 C4          3.4126    0.7835   -0.0228 C.ar      1 <0>        -0.0726
      5 C5          4.2364    1.8793   -0.2004 C.ar      1 <0>        -0.1122
      6 C6          3.7183    3.1570   -0.1006 C.ar      1 <0>        -0.1219
      7 C7          3.9779   -0.6094   -0.1291 C.3       1 <0>        -0.0808
      8 H1          4.9670   -0.5705   -0.5854 H         1 <0>         0.1025
      9 C8          4.0772   -1.2350    1.2681 C.3       1 <0>         0.0681
     10 O1          2.7881   -1.1771    1.8801 O.3       1 <0>        -0.3031
     11 C9          1.7234   -1.6181    1.1607 C.ar      1 <0>         0.1599
     12 C10         0.5444   -1.9139    1.8361 C.ar      1 <0>        -0.1826
     13 C11        -0.5642   -2.3613    1.1377 C.ar      1 <0>         0.1499
     14 C12        -0.4970   -2.5141   -0.2401 C.ar      1 <0>        -0.1780
     15 C13         0.6743   -2.2221   -0.9089 C.ar      1 <0>        -0.0624
     16 C14         1.7865   -1.7767   -0.2130 C.ar      1 <0>        -0.1741
     17 C15         3.0504   -1.4789   -0.9814 C.3       1 <0>         0.0049
     18 H2          3.5541   -2.4138   -1.2271 H         1 <0>         0.1003
     19 C16         2.7052   -0.7471   -2.2528 C.ar      1 <0>        -0.0888
     20 C17         1.5682    0.0375   -2.3105 C.ar      1 <0>        -0.0589
     21 C18         1.2494    0.7090   -3.4750 C.ar      1 <0>        -0.1401
     22 C19         2.0713    0.5958   -4.5868 C.ar      1 <0>         0.1128
     23 C20         3.2118   -0.1918   -4.5262 C.ar      1 <0>        -0.2018
     24 C21         3.5290   -0.8571   -3.3578 C.ar      1 <0>        -0.0722
     25 O2          1.7595    1.2550   -5.7336 O.3       1 <0>        -0.3292
     26 C22         2.6513    1.0923   -6.8384 C.3       1 <0>         0.0263
     27 C23         2.1395    1.9032   -8.0306 C.3       1 <0>        -0.0008
     28 N1          2.1434    3.3319   -7.6889 N.4       1 <0>        -0.3839
     29 C24         1.5103    4.0941   -8.7719 C.3       1 <0>        -0.0071
     30 C25         1.4387    5.5730   -8.3855 C.3       1 <0>        -0.1467
     31 C26         2.8560    6.1020   -8.1477 C.3       1 <0>        -0.1388
     32 C27         3.5330    5.2523   -7.0684 C.3       1 <0>        -0.1453
     33 C28         3.5270    3.7853   -7.5035 C.3       1 <0>        -0.0127
     34 O3         -1.7152   -2.6505    1.7998 O.3       1 <0>        -0.4937
     35 H3          1.9700    4.3371    0.2469 H         1 <0>         0.1191
     36 H4          0.5031    2.3854    0.5665 H         1 <0>         0.1190
     37 H5          1.4266    0.1095    0.3916 H         1 <0>         0.1374
     38 H6          5.2852    1.7371   -0.4153 H         1 <0>         0.1184
     39 H7          4.3621    4.0130   -0.2390 H         1 <0>         0.1194
     40 H8          4.3971   -2.2736    1.1833 H         1 <0>         0.0755
     41 H9          4.7948   -0.6773    1.8699 H         1 <0>         0.1153
     42 H10         0.4935   -1.7946    2.9083 H         1 <0>         0.1409
     43 H11        -1.3603   -2.8615   -0.7883 H         1 <0>         0.1332
     44 H12         0.7244   -2.3417   -1.9811 H         1 <0>         0.1298
     45 H13         0.9287    0.1253   -1.4447 H         1 <0>         0.1402
     46 H14         0.3608    1.3212   -3.5198 H         1 <0>         0.1302
     47 H15         3.8532   -0.2815   -5.3904 H         1 <0>         0.1261
     48 H16         4.4191   -1.4668   -3.3086 H         1 <0>         0.1297
     49 H17         3.6442    1.4445   -6.5588 H         1 <0>         0.0853
     50 H18         2.7032    0.0383   -7.1112 H         1 <0>         0.1086
     51 H19         2.7875    1.7335   -8.8905 H         1 <0>         0.1484
     52 H20         1.1240    1.5905   -8.2736 H         1 <0>         0.1422
     53 H21         2.0976    3.9853   -9.6837 H         1 <0>         0.1291
     54 H22         0.5029    3.7143   -8.9421 H         1 <0>         0.1309
     55 H23         0.9700    6.1375   -9.1916 H         1 <0>         0.1131
     56 H24         0.8514    5.6830   -7.4739 H         1 <0>         0.0879
     57 H25         3.4285    6.0395   -9.0731 H         1 <0>         0.0821
     58 H26         2.8071    7.1396   -7.8173 H         1 <0>         0.0947
     59 H27         4.5613    5.5876   -6.9329 H         1 <0>         0.1120
     60 H28         2.9891    5.3557   -6.1294 H         1 <0>         0.0878
     61 H29         4.0085    3.1776   -6.7374 H         1 <0>         0.1270
     62 H30         4.0713    3.6831   -8.4423 H         1 <0>         0.1300
     63 H31        -2.3186   -1.8998    1.8860 H         1 <0>         0.3966
     64 H32         1.6266    3.4736   -6.8340 H         1 <0>         0.4295
@<TRIPOS>BOND
     1    1    6 ar
     2    1    2 ar
     3    1   35 1
     4    2    3 ar
     5    2   36 1
     6    3    4 ar
     7    3   37 1
     8    4    5 ar
     9    4    7 1
    10    5    6 ar
    11    5   38 1
    12    6   39 1
    13    7    8 1
    14    7   17 1
    15    7    9 1
    16    9   10 1
    17    9   40 1
    18    9   41 1
    19   10   11 1
    20   11   16 ar
    21   11   12 ar
    22   12   13 ar
    23   12   42 1
    24   13   14 ar
    25   13   34 1
    26   14   15 ar
    27   14   43 1
    28   15   16 ar
    29   15   44 1
    30   16   17 1
    31   17   18 1
    32   17   19 1
    33   19   24 ar
    34   19   20 ar
    35   20   21 ar
    36   20   45 1
    37   21   22 ar
    38   21   46 1
    39   22   23 ar
    40   22   25 1
    41   23   24 ar
    42   23   47 1
    43   24   48 1
    44   25   26 1
    45   26   27 1
    46   26   49 1
    47   26   50 1
    48   27   28 1
    49   27   51 1
    50   27   52 1
    51   28   33 1
    52   28   29 1
    53   28   64 1
    54   29   30 1
    55   29   53 1
    56   29   54 1
    57   30   31 1
    58   30   55 1
    59   30   56 1
    60   31   32 1
    61   31   57 1
    62   31   58 1
    63   32   33 1
    64   32   59 1
    65   32   60 1
    66   33   61 1
    67   33   62 1
    68   34   63 1
