@<TRIPOS>MOLECULE
CHEMBL378675
   46    49     0     0     0
SMALL
USER_CHARGES

@<TRIPOS>ATOM
      1 C1         -0.0187    1.5258    0.0104 C.3       1 <0>        -0.1540
      2 C2          0.0021   -0.0041    0.0020 C.3       1 <0>        -0.1259
      3 C3          0.7182   -0.4975   -1.2568 C.3       1 <0>        -0.1215
      4 C4          0.7390   -2.0273   -1.2652 C.3       1 <0>        -0.1014
      5 C5          1.4551   -2.5207   -2.5240 C.3       1 <0>        -0.0380
      6 C6          2.8961   -2.0109   -2.5818 C.3       1 <0>        -0.1082
      7 C7          3.6669   -2.5729   -1.3835 C.3       1 <0>        -0.1614
      8 C8          3.6324   -4.0782   -1.3923 C.2       1 <0>         0.4006
      9 O1          4.5355   -4.7058   -0.8785 O.2       1 <0>        -0.4480
     10 C9          2.5121   -4.7909   -2.0185 C.2       1 <0>        -0.1342
     11 C10         1.5028   -4.0426   -2.5804 C.2       1 <0>         0.0474
     12 C11         0.3454   -4.4630   -3.3453 C.ar      1 <0>        -0.1096
     13 C12        -0.2971   -5.7136   -3.3893 C.ar      1 <0>        -0.0475
     14 C13        -1.3627   -5.8402   -4.2439 C.ar      1 <0>        -0.1590
     15 C14        -1.7975   -4.7875   -5.0365 C.ar      1 <0>         0.1351
     16 C15        -1.1825   -3.5333   -4.9956 C.ar      1 <0>        -0.1382
     17 C16        -0.1202   -3.3831   -4.1305 C.ar      1 <0>        -0.0467
     18 C17         0.6735   -2.1501   -3.7996 C.3       1 <0>        -0.0805
     19 O2         -2.8478   -4.9811   -5.8741 O.3       1 <0>        -0.4986
     20 C18         2.4696   -6.2656   -2.0453 C.2       1 <0>         0.0370
     21 C19         3.3429   -7.0784   -2.7010 C.2       1 <0>        -0.1767
     22 C20         2.9278   -8.4022   -2.4549 C.2       1 <0>        -0.2073
     23 C21         1.8343   -8.3341   -1.6703 C.2       1 <0>        -0.0425
     24 O3          1.5634   -7.0420   -1.4204 O.3       1 <0>        -0.1722
     25 H1          1.0039    1.9031    0.0027 H         1 <0>         0.0545
     26 H2         -0.5459    1.8868   -0.8726 H         1 <0>         0.0538
     27 H3         -0.5289    1.8773    0.9072 H         1 <0>         0.0541
     28 H4          0.5293   -0.3651    0.8851 H         1 <0>         0.0620
     29 H5         -1.0205   -0.3814    0.0098 H         1 <0>         0.0613
     30 H6          0.1910   -0.1364   -2.1398 H         1 <0>         0.0675
     31 H7          1.7408   -0.1202   -1.2645 H         1 <0>         0.0696
     32 H8          1.2661   -2.3884   -0.3821 H         1 <0>         0.0720
     33 H9         -0.2836   -2.4046   -1.2575 H         1 <0>         0.0717
     34 H10         3.3651   -2.3452   -3.5072 H         1 <0>         0.0775
     35 H11         2.9002   -0.9217   -2.5406 H         1 <0>         0.0907
     36 H12         4.7025   -2.2366   -1.4322 H         1 <0>         0.1033
     37 H13         3.2140   -2.2082   -0.4615 H         1 <0>         0.1075
     38 H14         0.0346   -6.5389   -2.7768 H         1 <0>         0.1406
     39 H15        -1.8788   -6.7872   -4.3012 H         1 <0>         0.1316
     40 H16        -1.5247   -2.7174   -5.6149 H         1 <0>         0.1424
     41 H17         0.0069   -1.3096   -3.6061 H         1 <0>         0.0969
     42 H18         1.3612   -1.9118   -4.6110 H         1 <0>         0.0959
     43 H19        -3.7080   -4.7858   -5.4780 H         1 <0>         0.3955
     44 H20         4.1898   -6.7685   -3.2951 H         1 <0>         0.1468
     45 H21         3.3971   -9.3016   -2.8255 H         1 <0>         0.1510
     46 H22         1.2713   -9.1783   -1.3005 H         1 <0>         0.2052
@<TRIPOS>BOND
     1    1    2 1
     2    1   25 1
     3    1   26 1
     4    1   27 1
     5    2    3 1
     6    2   28 1
     7    2   29 1
     8    3    4 1
     9    3   30 1
    10    3   31 1
    11    4    5 1
    12    4   32 1
    13    4   33 1
    14    5   11 1
    15    5   18 1
    16    5    6 1
    17    6    7 1
    18    6   34 1
    19    6   35 1
    20    7    8 1
    21    7   36 1
    22    7   37 1
    23    8    9 2
    24    8   10 1
    25   10   11 2
    26   10   20 1
    27   11   12 1
    28   12   17 ar
    29   12   13 ar
    30   13   14 ar
    31   13   38 1
    32   14   15 ar
    33   14   39 1
    34   15   16 ar
    35   15   19 1
    36   16   17 ar
    37   16   40 1
    38   17   18 1
    39   18   41 1
    40   18   42 1
    41   19   43 1
    42   20   24 1
    43   20   21 2
    44   21   22 1
    45   21   44 1
    46   22   23 2
    47   22   45 1
    48   23   24 1
    49   23   46 1
