@<TRIPOS>MOLECULE
CHEMBL182342
   65    70     0     0     0
SMALL
USER_CHARGES

@<TRIPOS>ATOM
      1 C1          0.0096    1.3510    0.3363 C.ar      1 <0>        -0.0965
      2 C2          1.1965    2.0541    0.3269 C.ar      1 <0>        -0.1010
      3 C3          2.3777    1.4187   -0.0131 C.ar      1 <0>        -0.1294
      4 C4          2.3771    0.0757   -0.3459 C.ar      1 <0>        -0.1083
      5 C5          1.1970   -0.6387   -0.3408 C.ar      1 <0>        -0.0959
      6 C6          0.0021   -0.0041    0.0020 C.ar      1 <0>        -0.0305
      7 C7         -1.2668   -0.7642    0.0105 C.ar      1 <0>        -0.0114
      8 C8         -2.1893   -0.5984   -1.0408 C.ar      1 <0>        -0.0191
      9 C9         -1.9203    0.2829   -2.1017 C.ar      1 <0>        -0.1374
     10 C10        -2.8296    0.4279   -3.1098 C.ar      1 <0>         0.1232
     11 C11        -4.0302   -0.2894   -3.1044 C.ar      1 <0>        -0.1297
     12 C12        -4.3220   -1.1507   -2.0930 C.ar      1 <0>        -0.0816
     13 C13        -3.4077   -1.3239   -1.0389 C.ar      1 <0>        -0.0397
     14 C14        -3.6792   -2.2055    0.0202 C.ar      1 <0>        -0.0441
     15 C15        -2.7694   -2.3537    1.0336 C.ar      1 <0>        -0.1070
     16 C16        -1.5437   -1.6563    1.0699 C.ar      1 <0>        -0.0467
     17 C17        -0.6779   -1.9419    2.2360 C.ar      1 <0>        -0.0842
     18 C18         0.5877   -1.3800    2.5145 C.ar      1 <0>        -0.0682
     19 C19         1.2814   -1.7405    3.6407 C.ar      1 <0>        -0.1503
     20 C20         0.7621   -2.6666    4.5402 C.ar      1 <0>         0.1366
     21 C21        -0.4789   -3.2334    4.2911 C.ar      1 <0>        -0.1045
     22 C22        -1.1785   -2.8726    3.1585 C.ar      1 <0>        -0.0789
     23 S1         -2.7579   -3.3480    2.5047 S.3       1 <0>         0.0565
     24 O1          1.4639   -3.0124    5.6512 O.3       1 <0>        -0.4915
     25 O2         -2.5644    1.2820   -4.1332 O.3       1 <0>        -0.4978
     26 C23         3.6706    2.1930   -0.0213 C.3       1 <0>         0.1599
     27 C24         4.4422    1.9110    1.2695 C.3       1 <0>        -0.1812
     28 C25         5.6931    2.7906    1.3185 C.3       1 <0>        -0.0076
     29 N1          6.4339    2.5198    2.5577 N.4       1 <0>        -0.3827
     30 C26         5.6199    2.9232    3.7107 C.3       1 <0>        -0.0129
     31 C27         6.3529    2.5689    5.0063 C.3       1 <0>        -0.1458
     32 C28         7.6953    3.3050    5.0446 C.3       1 <0>        -0.1396
     33 C29         8.5055    2.9338    3.7992 C.3       1 <0>        -0.1465
     34 C30         7.6928    3.2746    2.5483 C.3       1 <0>        -0.0067
     35 O3          4.4584    1.7928   -1.1443 O.3       1 <0>        -0.5484
     36 H1         -0.9111    1.8470    0.6061 H         1 <0>         0.1313
     37 H2          1.2037    3.1027    0.5850 H         1 <0>         0.1296
     38 H3          3.3024   -0.4142   -0.6107 H         1 <0>         0.1245
     39 H4          1.1977   -1.6868   -0.6015 H         1 <0>         0.1302
     40 H5         -0.9976    0.8439   -2.1194 H         1 <0>         0.1335
     41 H6         -4.7341   -0.1577   -3.9128 H         1 <0>         0.1381
     42 H7         -5.2524   -1.6990   -2.0993 H         1 <0>         0.1416
     43 H8         -4.6029   -2.7648    0.0358 H         1 <0>         0.1452
     44 H9          1.0137   -0.6588    1.8327 H         1 <0>         0.1369
     45 H10         2.2478   -1.2984    3.8330 H         1 <0>         0.1289
     46 H11        -0.8951   -3.9535    4.9799 H         1 <0>         0.1434
     47 H12         1.2786   -2.4585    6.4218 H         1 <0>         0.3969
     48 H13        -2.0978    0.8738   -4.8753 H         1 <0>         0.3955
     49 H14         3.4551    3.2593   -0.0901 H         1 <0>         0.1181
     50 H15         3.8080    2.1330    2.1278 H         1 <0>         0.0998
     51 H16         4.7349    0.8614    1.2958 H         1 <0>         0.0928
     52 H17         6.3272    2.5686    0.4602 H         1 <0>         0.1381
     53 H18         5.4004    3.8403    1.2921 H         1 <0>         0.1310
     54 H19         5.4468    3.9987    3.6742 H         1 <0>         0.1288
     55 H20         4.6637    2.4009    3.6803 H         1 <0>         0.1296
     56 H21         5.7478    2.8707    5.8611 H         1 <0>         0.1116
     57 H22         6.5264    1.4934    5.0439 H         1 <0>         0.0872
     58 H23         7.5207    4.3808    5.0586 H         1 <0>         0.0818
     59 H24         8.2461    3.0122    5.9384 H         1 <0>         0.0943
     60 H25         9.4390    3.4965    3.7913 H         1 <0>         0.1125
     61 H26         8.7237    1.8659    3.8118 H         1 <0>         0.0873
     62 H27         8.2668    3.0118    1.6598 H         1 <0>         0.1305
     63 H28         7.4754    4.3427    2.5366 H         1 <0>         0.1284
     64 H29         4.6883    0.8536   -1.1488 H         1 <0>         0.3801
     65 H30         6.6350    1.5330    2.6193 H         1 <0>         0.4214
@<TRIPOS>BOND
     1    1    6 ar
     2    1    2 ar
     3    1   36 1
     4    2    3 ar
     5    2   37 1
     6    3    4 ar
     7    3   26 1
     8    4    5 ar
     9    4   38 1
    10    5    6 ar
    11    5   39 1
    12    6    7 1
    13    7   16 ar
    14    7    8 ar
    15    8   13 ar
    16    8    9 ar
    17    9   10 ar
    18    9   40 1
    19   10   11 ar
    20   10   25 1
    21   11   12 ar
    22   11   41 1
    23   12   13 ar
    24   12   42 1
    25   13   14 ar
    26   14   15 ar
    27   14   43 1
    28   15   23 1
    29   15   16 ar
    30   16   17 1
    31   17   22 ar
    32   17   18 ar
    33   18   19 ar
    34   18   44 1
    35   19   20 ar
    36   19   45 1
    37   20   21 ar
    38   20   24 1
    39   21   22 ar
    40   21   46 1
    41   22   23 1
    42   24   47 1
    43   25   48 1
    44   26   27 1
    45   26   35 1
    46   26   49 1
    47   27   28 1
    48   27   50 1
    49   27   51 1
    50   28   29 1
    51   28   52 1
    52   28   53 1
    53   29   34 1
    54   29   30 1
    55   29   65 1
    56   30   31 1
    57   30   54 1
    58   30   55 1
    59   31   32 1
    60   31   56 1
    61   31   57 1
    62   32   33 1
    63   32   58 1
    64   32   59 1
    65   33   34 1
    66   33   60 1
    67   33   61 1
    68   34   62 1
    69   34   63 1
    70   35   64 1
