@<TRIPOS>MOLECULE
CHEMBL188051
   32    35     0     0     0
SMALL
USER_CHARGES

@<TRIPOS>ATOM
      1 C1         -0.0051    1.3845    0.1665 C.ar      1 <0>        -0.1234
      2 C2          1.1405    2.1057    0.0077 C.ar      1 <0>        -0.0709
      3 C3          2.3678    1.4474   -0.1691 C.ar      1 <0>        -0.0768
      4 C4          2.4064    0.0322   -0.1806 C.ar      1 <0>        -0.0098
      5 C5          3.6320   -0.6251   -0.3581 C.ar      1 <0>        -0.1188
      6 C6          4.7752    0.0986   -0.5180 C.ar      1 <0>        -0.0884
      7 C7          4.7504    1.4902   -0.5081 C.ar      1 <0>        -0.1411
      8 C8          3.5667    2.1717   -0.3365 C.ar      1 <0>         0.1220
      9 O1          3.5533    3.5295   -0.3283 O.3       1 <0>        -0.4905
     10 C9          1.2025   -0.6941   -0.0126 C.ar      1 <0>        -0.0391
     11 C10         0.0137   -0.0049    0.1579 C.ar      1 <0>        -0.0655
     12 C11         1.2144   -2.1738   -0.0210 C.2       1 <0>         0.1826
     13 C12         0.3101   -3.0507   -0.7830 C.ar      1 <0>        -0.1972
     14 C13        -0.7494   -2.8119   -1.6592 C.ar      1 <0>        -0.0197
     15 C14        -1.4151   -3.8619   -2.2242 C.ar      1 <0>        -0.1704
     16 C15        -1.0437   -5.1720   -1.9314 C.ar      1 <0>         0.1725
     17 C16         0.0044   -5.4265   -1.0649 C.ar      1 <0>        -0.1565
     18 C17         0.6905   -4.3683   -0.4834 C.ar      1 <0>         0.1052
     19 O2          1.7264   -4.3012    0.3778 O.3       1 <0>        -0.0848
     20 N1          2.0339   -2.9474    0.6426 N.2       1 <0>        -0.2738
     21 O3         -1.7154   -6.2067   -2.5000 O.3       1 <0>        -0.4903
     22 H1         -0.9429    1.9018    0.3060 H         1 <0>         0.1362
     23 H2          1.1040    3.1850    0.0174 H         1 <0>         0.1380
     24 H3          3.6699   -1.7044   -0.3677 H         1 <0>         0.1312
     25 H4          5.7152   -0.4154   -0.6542 H         1 <0>         0.1322
     26 H5          5.6702    2.0415   -0.6361 H         1 <0>         0.1346
     27 H6          3.6739    3.9188    0.5486 H         1 <0>         0.3940
     28 H7         -0.9081   -0.5527    0.2862 H         1 <0>         0.1336
     29 H8         -1.0427   -1.7984   -1.8898 H         1 <0>         0.1406
     30 H9         -2.2349   -3.6753   -2.9021 H         1 <0>         0.1444
     31 H10         0.2877   -6.4444   -0.8412 H         1 <0>         0.1480
     32 H11        -1.3461   -6.4985   -3.3447 H         1 <0>         0.4018
@<TRIPOS>BOND
     1    1   11 ar
     2    1    2 ar
     3    1   22 1
     4    2    3 ar
     5    2   23 1
     6    3    8 ar
     7    3    4 ar
     8    4    5 ar
     9    4   10 ar
    10    5    6 ar
    11    5   24 1
    12    6    7 ar
    13    6   25 1
    14    7    8 ar
    15    7   26 1
    16    8    9 1
    17    9   27 1
    18   10   11 ar
    19   10   12 1
    20   11   28 1
    21   12   20 2
    22   12   13 1
    23   13   18 ar
    24   13   14 ar
    25   14   15 ar
    26   14   29 1
    27   15   16 ar
    28   15   30 1
    29   16   17 ar
    30   16   21 1
    31   17   18 ar
    32   17   31 1
    33   18   19 1
    34   19   20 1
    35   21   32 1
