@<TRIPOS>MOLECULE
CHEMBL215428
   45    49     0     0     0
SMALL
USER_CHARGES

@<TRIPOS>ATOM
      1 C1         -0.0187    1.5258    0.0104 C.3       1 <0>        -0.1572
      2 C2          0.0021   -0.0041    0.0020 C.3       1 <0>        -0.1049
      3 C3          0.7182   -0.4975   -1.2568 C.3       1 <0>        -0.0366
      4 C4          2.1583    0.0163   -1.3197 C.3       1 <0>        -0.1071
      5 C5          2.9407   -0.5619   -0.1367 C.3       1 <0>        -0.1647
      6 C6          2.9014   -2.0671   -0.1635 C.2       1 <0>         0.3955
      7 O1          3.8109   -2.7042    0.3270 O.2       1 <0>        -0.4476
      8 C7          1.7685   -2.7669   -0.7795 C.2       1 <0>        -0.1472
      9 C8          0.7673   -2.0158   -1.3155 C.2       1 <0>         0.0265
     10 C9         -0.4141   -2.4419   -2.0673 C.ar      1 <0>        -0.1008
     11 C10        -1.0905   -3.6785   -2.1055 C.ar      1 <0>        -0.0369
     12 C11        -2.1482   -3.8654   -2.9398 C.ar      1 <0>        -0.1300
     13 C12        -2.5842   -2.8297   -3.7644 C.ar      1 <0>         0.1111
     14 C13        -1.9494   -1.5747   -3.7177 C.ar      1 <0>        -0.0129
     15 C14        -0.8705   -1.3809   -2.8513 C.ar      1 <0>         0.0215
     16 C15        -0.0656   -0.1380   -2.5314 C.3       1 <0>        -0.0772
     17 N1         -2.5796   -0.7647   -4.6022 N.2       1 <0>        -0.2046
     18 N2         -3.5314   -1.4029   -5.1865 N.2       1 <0>         0.0021
     19 N3         -3.5831   -2.7167   -4.6991 N.pl3     1 <0>        -0.4954
     20 H1         -4.2038   -3.4110   -4.9702 H         1 <0>         0.4507
     21 C16         1.7154   -4.2473   -0.8171 C.ar      1 <0>        -0.0389
     22 C17         0.7188   -4.9290   -0.1190 C.ar      1 <0>        -0.0952
     23 C18         0.6724   -6.3066   -0.1561 C.ar      1 <0>        -0.1467
     24 C19         1.6166   -7.0152   -0.8870 C.ar      1 <0>         0.1097
     25 C20         2.6103   -6.3398   -1.5828 C.ar      1 <0>        -0.1415
     26 C21         2.6586   -4.9620   -1.5554 C.ar      1 <0>        -0.0752
     27 O2          1.5683   -8.3728   -0.9211 O.3       1 <0>        -0.4985
     28 H2          1.0039    1.9031    0.0027 H         1 <0>         0.0621
     29 H3         -0.5459    1.8868   -0.8726 H         1 <0>         0.0606
     30 H4         -0.5289    1.8773    0.9072 H         1 <0>         0.0606
     31 H5          0.5293   -0.3651    0.8851 H         1 <0>         0.0721
     32 H6         -1.0205   -0.3814    0.0098 H         1 <0>         0.0707
     33 H7          2.6197   -0.3032   -2.2541 H         1 <0>         0.0770
     34 H8          2.1607    1.1048   -1.2622 H         1 <0>         0.0902
     35 H9          3.9768   -0.2281   -0.1930 H         1 <0>         0.1012
     36 H10         2.4991   -0.2071    0.7946 H         1 <0>         0.1064
     37 H11        -0.7655   -4.4854   -1.4654 H         1 <0>         0.1486
     38 H12        -2.6521   -4.8203   -2.9637 H         1 <0>         0.1397
     39 H13        -0.7291    0.7062   -2.3438 H         1 <0>         0.1011
     40 H14         0.6201    0.0908   -3.3471 H         1 <0>         0.1007
     41 H15        -0.0155   -4.3785    0.4504 H         1 <0>         0.1298
     42 H16        -0.0990   -6.8351    0.3843 H         1 <0>         0.1326
     43 H17         3.3436   -6.8940   -2.1498 H         1 <0>         0.1314
     44 H18         3.4287   -4.4370   -2.1010 H         1 <0>         0.1261
     45 H19         1.0312   -8.7292   -1.6420 H         1 <0>         0.3912
@<TRIPOS>BOND
     1    1    2 1
     2    1   28 1
     3    1   29 1
     4    1   30 1
     5    2    3 1
     6    2   31 1
     7    2   32 1
     8    3    9 1
     9    3   16 1
    10    3    4 1
    11    4    5 1
    12    4   33 1
    13    4   34 1
    14    5    6 1
    15    5   35 1
    16    5   36 1
    17    6    7 2
    18    6    8 1
    19    8    9 2
    20    8   21 1
    21    9   10 1
    22   10   15 ar
    23   10   11 ar
    24   11   12 ar
    25   11   37 1
    26   12   13 ar
    27   12   38 1
    28   13   19 1
    29   13   14 ar
    30   14   15 ar
    31   14   17 1
    32   15   16 1
    33   16   39 1
    34   16   40 1
    35   17   18 2
    36   18   19 1
    37   19   20 1
    38   21   26 ar
    39   21   22 ar
    40   22   23 ar
    41   22   41 1
    42   23   24 ar
    43   23   42 1
    44   24   25 ar
    45   24   27 1
    46   25   26 ar
    47   25   43 1
    48   26   44 1
    49   27   45 1
