@<TRIPOS>MOLECULE
CHEMBL125119
   56    60     0     0     0
SMALL
USER_CHARGES

@<TRIPOS>ATOM
      1 C1         -0.0817    1.1069    0.4786 C.ar      1 <0>        -0.0944
      2 C2          1.1283    1.7418    0.6870 C.ar      1 <0>        -0.1089
      3 C3          2.2974    1.0052    0.7276 C.ar      1 <0>        -0.0866
      4 C4          2.2563   -0.3663    0.5602 C.ar      1 <0>        -0.1162
      5 C5          1.0462   -1.0014    0.3527 C.ar      1 <0>        -0.0707
      6 C6         -0.1228   -0.2646    0.3107 C.ar      1 <0>        -0.0722
      7 C7         -1.4420   -0.9569    0.0840 C.3       1 <0>         0.1449
      8 H1         -2.2538   -0.3157    0.4275 H         1 <0>         0.0968
      9 C8         -1.6177   -1.2505   -1.4153 C.3       1 <0>        -0.0651
     10 H2         -1.5021   -0.3317   -1.9903 H         1 <0>         0.1391
     11 S1         -3.2994   -1.9127   -1.6339 S.3       1 <0>        -0.0804
     12 C9         -3.4492   -3.0384   -0.2808 C.ar      1 <0>        -0.1492
     13 C10        -4.4991   -3.9472   -0.2728 C.ar      1 <0>        -0.0896
     14 C11        -4.6432   -4.8349    0.7811 C.ar      1 <0>         0.0989
     15 C12        -3.7347   -4.8086    1.8291 C.ar      1 <0>        -0.1065
     16 C13        -2.6896   -3.9081    1.8200 C.ar      1 <0>        -0.1144
     17 C14        -2.5307   -3.0152    0.7628 C.ar      1 <0>         0.1205
     18 O1         -1.4661   -2.1800    0.8037 O.3       1 <0>        -0.3048
     19 O2         -5.6697   -5.7266    0.7884 O.3       1 <0>        -0.4915
     20 C15        -0.6002   -2.2681   -1.8627 C.ar      1 <0>        -0.0872
     21 C16        -0.7667   -3.6009   -1.5344 C.ar      1 <0>        -0.0872
     22 C17         0.1649   -4.5356   -1.9430 C.ar      1 <0>        -0.1401
     23 C18         1.2678   -4.1361   -2.6836 C.ar      1 <0>         0.1143
     24 C19         1.4323   -2.7983   -3.0120 C.ar      1 <0>        -0.1465
     25 C20         0.4952   -1.8682   -2.6055 C.ar      1 <0>        -0.0821
     26 O3          2.1859   -5.0537   -3.0863 O.3       1 <0>        -0.5010
     27 C21         3.6167    1.6976    0.9538 C.3       1 <0>        -0.0553
     28 C22         4.5434    1.4353   -0.2369 C.3       1 <0>        -0.1425
     29 C23         5.9072    2.0739    0.0349 C.3       1 <0>        -0.0072
     30 N1          6.4912    1.4912    1.2489 N.4       1 <0>        -0.5062
     31 C24         5.6440    1.8004    2.4070 C.3       1 <0>        -0.0070
     32 C25         4.2701    1.1513    2.2265 C.3       1 <0>        -0.1430
     33 H3         -0.9956    1.6818    0.4514 H         1 <0>         0.1313
     34 H4          1.1604    2.8134    0.8178 H         1 <0>         0.1284
     35 H5          3.1698   -0.9417    0.5912 H         1 <0>         0.1198
     36 H6          1.0141   -2.0728    0.2213 H         1 <0>         0.1300
     37 H7         -5.2048   -3.9624   -1.0902 H         1 <0>         0.1408
     38 H8         -3.8457   -5.4958    2.6548 H         1 <0>         0.1428
     39 H9         -1.9878   -3.8951    2.6408 H         1 <0>         0.1406
     40 H10        -5.4604   -6.5708    0.3659 H         1 <0>         0.3947
     41 H11        -1.6255   -3.9114   -0.9579 H         1 <0>         0.1319
     42 H12         0.0348   -5.5764   -1.6857 H         1 <0>         0.1306
     43 H13         2.2902   -2.4848   -3.5884 H         1 <0>         0.1291
     44 H14         0.6205   -0.8273   -2.8647 H         1 <0>         0.1244
     45 H15         1.9966   -5.4469   -3.9492 H         1 <0>         0.3958
     46 H16         3.4522    2.7698    1.0599 H         1 <0>         0.0971
     47 H17         4.6654    0.3608   -0.3735 H         1 <0>         0.0912
     48 H18         4.1107    1.8706   -1.1377 H         1 <0>         0.1143
     49 H19         6.5694    1.8893   -0.8110 H         1 <0>         0.1345
     50 H20         5.7841    3.1484    0.1710 H         1 <0>         0.1315
     51 H21         6.5594    0.4903    1.1411 H         1 <0>         0.4280
     52 H22         6.1119    1.4138    3.3124 H         1 <0>         0.1347
     53 H23         5.5265    2.8807    2.4926 H         1 <0>         0.1315
     54 H24         3.6420    1.3835    3.0866 H         1 <0>         0.1147
     55 H25         4.3864    0.0709    2.1411 H         1 <0>         0.0911
     56 H26         7.4126    1.8753    1.3954 H         1 <0>         0.4323
@<TRIPOS>BOND
     1    1    6 ar
     2    1    2 ar
     3    1   33 1
     4    2    3 ar
     5    2   34 1
     6    3    4 ar
     7    3   27 1
     8    4    5 ar
     9    4   35 1
    10    5    6 ar
    11    5   36 1
    12    6    7 1
    13    7    8 1
    14    7   18 1
    15    7    9 1
    16    9   10 1
    17    9   11 1
    18    9   20 1
    19   11   12 1
    20   12   17 ar
    21   12   13 ar
    22   13   14 ar
    23   13   37 1
    24   14   15 ar
    25   14   19 1
    26   15   16 ar
    27   15   38 1
    28   16   17 ar
    29   16   39 1
    30   17   18 1
    31   19   40 1
    32   20   25 ar
    33   20   21 ar
    34   21   22 ar
    35   21   41 1
    36   22   23 ar
    37   22   42 1
    38   23   24 ar
    39   23   26 1
    40   24   25 ar
    41   24   43 1
    42   25   44 1
    43   26   45 1
    44   27   32 1
    45   27   28 1
    46   27   46 1
    47   28   29 1
    48   28   47 1
    49   28   48 1
    50   29   30 1
    51   29   49 1
    52   29   50 1
    53   30   31 1
    54   30   51 1
    55   30   56 1
    56   31   32 1
    57   31   52 1
    58   31   53 1
    59   32   54 1
    60   32   55 1
