@<TRIPOS>MOLECULE
CHEMBL394788
   30    32     0     0     0
SMALL
USER_CHARGES

@<TRIPOS>ATOM
      1 C1         -0.0167    1.3836    0.0096 C.ar      1 <0>        -0.1205
      2 C2          1.1669    2.1003    0.0022 C.ar      1 <0>        -0.0200
      3 C3          2.3801    1.4279   -0.0130 C.ar      1 <0>        -0.1426
      4 C4          2.4024    0.0167   -0.0207 C.ar      1 <0>        -0.1105
      5 C5          1.2144   -0.6913   -0.0128 C.ar      1 <0>        -0.0684
      6 C6          0.0021   -0.0041    0.0020 C.ar      1 <0>         0.1409
      7 O1         -1.1659   -0.6953    0.0094 O.3       1 <0>        -0.4879
      8 C7          3.8309   -0.3643   -0.0363 C.2       1 <0>         0.5888
      9 O2          4.2622   -1.4996   -0.0469 O.2       1 <0>        -0.4490
     10 N1          4.5726    0.7580   -0.0374 N.am      1 <0>        -0.5400
     11 C8          3.7929    1.8540   -0.0241 C.2       1 <0>         0.5899
     12 O3          4.1862    3.0033   -0.0225 O.2       1 <0>        -0.4528
     13 C9          5.9755    0.7822   -0.0499 C.ar      1 <0>         0.1765
     14 C10         6.6589    0.8060   -1.2582 C.ar      1 <0>        -0.0793
     15 C11         8.0393    0.8297   -1.2700 C.ar      1 <0>        -0.0829
     16 C12         8.7436    0.8295   -0.0746 C.ar      1 <0>         0.1331
     17 C13         8.0614    0.8053    1.1328 C.ar      1 <0>        -0.0766
     18 C14         6.6804    0.7882    1.1457 C.ar      1 <0>        -0.0171
     19 N2          5.9524    0.7696    2.4343 N.pl3     1 <0>         0.0344
     20 O4          6.5665    0.7748    3.4757 O.2       1 <0>        -0.1327
     21 O5          4.7436    0.7491    2.4455 O.3       1 <0>        -0.1584
     22 O6         10.1030    0.8524   -0.0868 O.3       1 <0>        -0.4812
     23 H1         -0.9611    1.9073    0.0260 H         1 <0>         0.1525
     24 H2          1.1462    3.1801    0.0078 H         1 <0>         0.1506
     25 H3          1.2260   -1.7712   -0.0191 H         1 <0>         0.1513
     26 H4         -1.5128   -0.8908   -0.8718 H         1 <0>         0.4024
     27 H5          6.1108    0.8055   -2.1888 H         1 <0>         0.1598
     28 H6          8.5710    0.8482   -2.2099 H         1 <0>         0.1629
     29 H7          8.6101    0.8044    2.0630 H         1 <0>         0.1713
     30 H8         10.4814    1.7423   -0.0814 H         1 <0>         0.4057
@<TRIPOS>BOND
     1    1    6 ar
     2    1    2 ar
     3    1   23 1
     4    2    3 ar
     5    2   24 1
     6    3   11 1
     7    3    4 ar
     8    4    5 ar
     9    4    8 1
    10    5    6 ar
    11    5   25 1
    12    6    7 1
    13    7   26 1
    14    8    9 2
    15    8   10 am
    16   10   11 am
    17   10   13 1
    18   11   12 2
    19   13   18 ar
    20   13   14 ar
    21   14   15 ar
    22   14   27 1
    23   15   16 ar
    24   15   28 1
    25   16   17 ar
    26   16   22 1
    27   17   18 ar
    28   17   29 1
    29   18   19 1
    30   19   20 2
    31   19   21 1
    32   22   30 1
