@<TRIPOS>MOLECULE
CHEMBL214091
   43    46     0     0     0
SMALL
USER_CHARGES

@<TRIPOS>ATOM
      1 C1         -0.0184    1.5028    0.0103 C.3       1 <0>        -0.1092
      2 C2          0.0021   -0.0041    0.0020 C.2       1 <0>        -0.1883
      3 C3         -1.1531   -0.7062    0.0036 C.2       1 <0>         0.0119
      4 C4         -2.5253   -0.2437   -0.1232 C.ar      1 <0>        -0.0976
      5 C5         -3.0733    1.0223    0.1458 C.ar      1 <0>        -0.0588
      6 C6         -4.4216    1.1902   -0.1059 C.ar      1 <0>        -0.1570
      7 C7         -5.2059    0.1591   -0.6036 C.ar      1 <0>         0.1280
      8 C8         -4.6774   -1.1085   -0.8597 C.ar      1 <0>        -0.1361
      9 C9         -3.3373   -1.2972   -0.5985 C.ar      1 <0>        -0.0528
     10 C10        -2.5186   -2.5553   -0.6847 C.3       1 <0>        -0.0845
     11 C11        -1.2180   -2.2270    0.0740 C.3       1 <0>        -0.0314
     12 C12        -0.0012   -2.7705   -0.6790 C.3       1 <0>        -0.1071
     13 C13         1.2641   -2.2074   -0.0228 C.3       1 <0>        -0.1695
     14 C14         1.2263   -0.7034   -0.0134 C.2       1 <0>         0.3926
     15 O1          2.2691   -0.0805   -0.0147 O.2       1 <0>        -0.4606
     16 C15        -1.2712   -2.7227    1.5205 C.3       1 <0>        -0.0611
     17 C16        -1.3342   -4.2283    1.5336 C.ar      1 <0>        -0.0783
     18 C17        -2.5587   -4.8691    1.5070 C.ar      1 <0>        -0.1169
     19 C18        -2.6165   -6.2502    1.5190 C.ar      1 <0>        -0.1162
     20 C19        -1.4497   -6.9905    1.5572 C.ar      1 <0>        -0.1213
     21 C20        -0.2251   -6.3497    1.5829 C.ar      1 <0>        -0.1164
     22 C21        -0.1672   -4.9686    1.5665 C.ar      1 <0>        -0.1161
     23 O2         -6.5211    0.3880   -0.8474 O.3       1 <0>        -0.4998
     24 H1          1.0042    1.8801    0.0026 H         1 <0>         0.0771
     25 H2         -0.5455    1.8639   -0.8728 H         1 <0>         0.0698
     26 H3         -0.5286    1.8543    0.9071 H         1 <0>         0.0698
     27 H4         -2.4674    1.8283    0.5326 H         1 <0>         0.1403
     28 H5         -4.8774    2.1495    0.0901 H         1 <0>         0.1319
     29 H6         -5.2932   -1.9072   -1.2461 H         1 <0>         0.1400
     30 H7         -3.0408   -3.3822   -0.2034 H         1 <0>         0.0963
     31 H8         -2.3009   -2.7964   -1.7252 H         1 <0>         0.0925
     32 H9          0.0094   -3.8590   -0.6226 H         1 <0>         0.0873
     33 H10        -0.0446   -2.4568   -1.7220 H         1 <0>         0.0754
     34 H11         1.3326   -2.5755    1.0009 H         1 <0>         0.1021
     35 H12         2.1381   -2.5396   -0.5831 H         1 <0>         0.0980
     36 H13        -0.3784   -2.3917    2.0510 H         1 <0>         0.0799
     37 H14        -2.1564   -2.3177    2.0110 H         1 <0>         0.0810
     38 H15        -3.4703   -4.2907    1.4771 H         1 <0>         0.1220
     39 H16        -3.5732   -6.7508    1.4989 H         1 <0>         0.1221
     40 H17        -1.4949   -8.0695    1.5673 H         1 <0>         0.1214
     41 H18         0.6865   -6.9280    1.6131 H         1 <0>         0.1225
     42 H19         0.7896   -4.4680    1.5829 H         1 <0>         0.1217
     43 H20        -6.7061    0.7031   -1.7427 H         1 <0>         0.3949
@<TRIPOS>BOND
     1    1    2 1
     2    1   24 1
     3    1   25 1
     4    1   26 1
     5    2   14 1
     6    2    3 2
     7    3   11 1
     8    3    4 1
     9    4    9 ar
    10    4    5 ar
    11    5    6 ar
    12    5   27 1
    13    6    7 ar
    14    6   28 1
    15    7    8 ar
    16    7   23 1
    17    8    9 ar
    18    8   29 1
    19    9   10 1
    20   10   11 1
    21   10   30 1
    22   10   31 1
    23   11   12 1
    24   11   16 1
    25   12   13 1
    26   12   32 1
    27   12   33 1
    28   13   14 1
    29   13   34 1
    30   13   35 1
    31   14   15 2
    32   16   17 1
    33   16   36 1
    34   16   37 1
    35   17   22 ar
    36   17   18 ar
    37   18   19 ar
    38   18   38 1
    39   19   20 ar
    40   19   39 1
    41   20   21 ar
    42   20   40 1
    43   21   22 ar
    44   21   41 1
    45   22   42 1
    46   23   43 1
