@<TRIPOS>MOLECULE
CHEMBL47012
   65    69     0     0     0
SMALL
USER_CHARGES

@<TRIPOS>ATOM
      1 C1         -5.5091   -1.9692   -0.5956 C.ar      1 <0>        -0.0900
      2 C2         -5.8046   -1.6177    0.7073 C.ar      1 <0>        -0.1427
      3 C3         -4.9702   -2.0212    1.7396 C.ar      1 <0>         0.1133
      4 C4         -3.8408   -2.7770    1.4604 C.ar      1 <0>        -0.1420
      5 C5         -3.5497   -3.1259    0.1558 C.ar      1 <0>        -0.0844
      6 C6         -4.3829   -2.7225   -0.8713 C.ar      1 <0>        -0.1038
      7 C7         -4.0632   -3.1049   -2.2935 C.3       1 <0>        -0.0020
      8 C8         -3.1966   -2.0412   -2.9170 C.2       1 <0>        -0.1450
      9 C9         -1.8377   -1.9845   -2.9233 C.2       1 <0>        -0.1855
     10 C10        -1.2024   -0.8476   -3.5958 C.ar      1 <0>        -0.0684
     11 C11         0.1620   -0.5382   -3.7544 C.ar      1 <0>        -0.0637
     12 C12         0.5451    0.5847   -4.4229 C.ar      1 <0>        -0.1333
     13 C13        -0.3929    1.4571   -4.9675 C.ar      1 <0>         0.1308
     14 C14        -1.7440    1.1808   -4.8290 C.ar      1 <0>        -0.0942
     15 C15        -2.1369    0.0452   -4.1531 C.ar      1 <0>        -0.1295
     16 S1         -3.7034   -0.6805   -3.7562 S.3       1 <0>         0.1919
     17 O1          0.0133    2.5725   -5.6300 O.3       1 <0>        -0.4897
     18 C16        -1.0335   -3.0278   -2.2774 C.2       1 <0>         0.4606
     19 O2         -0.6373   -2.8722   -1.1369 O.2       1 <0>        -0.4266
     20 C17        -0.7047   -4.2665   -3.0107 C.ar      1 <0>        -0.1843
     21 C18        -1.0568   -4.3984   -4.3567 C.ar      1 <0>        -0.0214
     22 C19        -0.7483   -5.5552   -5.0370 C.ar      1 <0>        -0.1529
     23 C20        -0.0877   -6.5910   -4.3867 C.ar      1 <0>         0.1468
     24 C21         0.2638   -6.4640   -3.0479 C.ar      1 <0>        -0.2152
     25 C22        -0.0354   -5.3079   -2.3622 C.ar      1 <0>        -0.0188
     26 O3          0.2145   -7.7296   -5.0607 O.3       1 <0>        -0.3243
     27 C23         0.8940   -8.7539   -4.3319 C.3       1 <0>         0.0229
     28 C24         1.1475   -9.9508   -5.2507 C.3       1 <0>        -0.0009
     29 N1          2.0470   -9.5496   -6.3406 N.4       1 <0>        -0.3846
     30 C25         2.1642  -10.6491   -7.3060 C.3       1 <0>        -0.0070
     31 C26         3.0351  -10.2077   -8.4842 C.3       1 <0>        -0.1467
     32 C27         4.4265   -9.8279   -7.9693 C.3       1 <0>        -0.1392
     33 C28         4.2860   -8.7320   -6.9088 C.3       1 <0>        -0.1454
     34 C29         3.3687   -9.2281   -5.7890 C.3       1 <0>        -0.0135
     35 O4         -5.2584   -1.6764    3.0221 O.3       1 <0>        -0.4981
     36 H1         -6.1608   -1.6591   -1.3991 H         1 <0>         0.1289
     37 H2         -6.6842   -1.0290    0.9220 H         1 <0>         0.1330
     38 H3         -3.1895   -3.0920    2.2622 H         1 <0>         0.1301
     39 H4         -2.6707   -3.7142   -0.0621 H         1 <0>         0.1221
     40 H5         -3.5332   -4.0573   -2.3033 H         1 <0>         0.0924
     41 H6         -4.9889   -3.1983   -2.8614 H         1 <0>         0.1002
     42 H7          0.9116   -1.1972   -3.3418 H         1 <0>         0.1253
     43 H8          1.5972    0.8027   -4.5324 H         1 <0>         0.1374
     44 H9         -2.4824    1.8494   -5.2463 H         1 <0>         0.1428
     45 H10         0.1467    2.4399   -6.5785 H         1 <0>         0.3966
     46 H11        -1.5704   -3.5942   -4.8626 H         1 <0>         0.1429
     47 H12        -1.0204   -5.6580   -6.0771 H         1 <0>         0.1409
     48 H13         0.7764   -7.2713   -2.5460 H         1 <0>         0.1352
     49 H14         0.2426   -5.2080   -1.3234 H         1 <0>         0.1429
     50 H15         1.8457   -8.3690   -3.9657 H         1 <0>         0.0892
     51 H16         0.2799   -9.0675   -3.4877 H         1 <0>         0.1125
     52 H17         1.6069  -10.7570   -4.6787 H         1 <0>         0.1504
     53 H18         0.2014  -10.2950   -5.6684 H         1 <0>         0.1436
     54 H19         2.6208  -11.5114   -6.8203 H         1 <0>         0.1295
     55 H20         1.1729  -10.9203   -7.6691 H         1 <0>         0.1314
     56 H21         3.1224  -11.0259   -9.1990 H         1 <0>         0.1134
     57 H22         2.5793   -9.3454   -8.9709 H         1 <0>         0.0880
     58 H23         4.9033  -10.7031   -7.5280 H         1 <0>         0.0823
     59 H24         5.0331   -9.4591   -8.7964 H         1 <0>         0.0950
     60 H25         5.2673   -8.4956   -6.4975 H         1 <0>         0.1126
     61 H26         3.8561   -7.8392   -7.3628 H         1 <0>         0.0878
     62 H27         3.2666   -8.4504   -5.0322 H         1 <0>         0.1270
     63 H28         3.7996  -10.1208   -5.3356 H         1 <0>         0.1308
     64 H29        -5.8147   -2.3169    3.4861 H         1 <0>         0.3935
     65 H30         1.6702   -8.7364   -6.8041 H         1 <0>         0.4291
@<TRIPOS>BOND
     1    1    6 ar
     2    1    2 ar
     3    1   36 1
     4    2    3 ar
     5    2   37 1
     6    3    4 ar
     7    3   35 1
     8    4    5 ar
     9    4   38 1
    10    5    6 ar
    11    5   39 1
    12    6    7 1
    13    7    8 1
    14    7   40 1
    15    7   41 1
    16    8   16 1
    17    8    9 2
    18    9   10 1
    19    9   18 1
    20   10   15 ar
    21   10   11 ar
    22   11   12 ar
    23   11   42 1
    24   12   13 ar
    25   12   43 1
    26   13   14 ar
    27   13   17 1
    28   14   15 ar
    29   14   44 1
    30   15   16 1
    31   17   45 1
    32   18   19 2
    33   18   20 1
    34   20   25 ar
    35   20   21 ar
    36   21   22 ar
    37   21   46 1
    38   22   23 ar
    39   22   47 1
    40   23   24 ar
    41   23   26 1
    42   24   25 ar
    43   24   48 1
    44   25   49 1
    45   26   27 1
    46   27   28 1
    47   27   50 1
    48   27   51 1
    49   28   29 1
    50   28   52 1
    51   28   53 1
    52   29   34 1
    53   29   30 1
    54   29   65 1
    55   30   31 1
    56   30   54 1
    57   30   55 1
    58   31   32 1
    59   31   56 1
    60   31   57 1
    61   32   33 1
    62   32   58 1
    63   32   59 1
    64   33   34 1
    65   33   60 1
    66   33   61 1
    67   34   62 1
    68   34   63 1
    69   35   64 1
