@<TRIPOS>MOLECULE
CHEMBL540584
   66    71     0     0     0
SMALL
USER_CHARGES

@<TRIPOS>ATOM
      1 C1          0.0439    1.0584    0.0477 C.ar      1 <0>        -0.0624
      2 C2          1.1879    1.8270    0.0060 C.ar      1 <0>        -0.1387
      3 C3          2.4358    1.2188    0.0265 C.ar      1 <0>         0.1140
      4 C4          2.5362   -0.1646    0.0896 C.ar      1 <0>        -0.1998
      5 C5          1.3960   -0.9389    0.1315 C.ar      1 <0>        -0.0617
      6 C6          0.1413   -0.3311    0.1110 C.ar      1 <0>        -0.0534
      7 C7         -1.0867   -1.1606    0.1565 C.2       1 <0>        -0.0596
      8 C8         -1.9802   -1.2517   -0.8344 C.2       1 <0>        -0.1050
      9 C9         -3.0673   -2.1894   -0.3878 C.3       1 <0>         0.0432
     10 C10        -4.4341   -1.4873   -0.3904 C.3       1 <0>        -0.0977
     11 C11        -5.3922   -2.6380   -0.7705 C.3       1 <0>        -0.0852
     12 C12        -4.5437   -3.6209   -1.5499 C.ar      1 <0>        -0.0721
     13 C13        -3.2017   -3.3606   -1.3272 C.ar      1 <0>        -0.0873
     14 C14        -2.2372   -4.1412   -1.9430 C.ar      1 <0>        -0.0773
     15 C15        -2.6060   -5.1772   -2.7772 C.ar      1 <0>        -0.1456
     16 C16        -3.9495   -5.4395   -3.0010 C.ar      1 <0>         0.1156
     17 C17        -4.9155   -4.6590   -2.3851 C.ar      1 <0>        -0.1334
     18 O1         -4.3176   -6.4581   -3.8219 O.3       1 <0>        -0.4974
     19 C18        -2.6971   -2.6396    0.9976 C.ar      1 <0>        -0.0854
     20 C19        -1.4893   -2.0071    1.3029 C.ar      1 <0>        -0.0445
     21 C20        -0.8902   -2.2410    2.5400 C.ar      1 <0>        -0.1247
     22 C21        -1.4911   -3.0964    3.4481 C.ar      1 <0>         0.1095
     23 C22        -2.6886   -3.7220    3.1304 C.ar      1 <0>        -0.1368
     24 C23        -3.2905   -3.4854    1.9073 C.ar      1 <0>        -0.0722
     25 O2         -0.9065   -3.3243    4.6536 O.3       1 <0>        -0.4978
     26 O3          3.5612    1.9789   -0.0156 O.3       1 <0>        -0.3282
     27 C24         4.8119    1.2882    0.0088 C.3       1 <0>         0.0253
     28 C25         5.9559    2.3027   -0.0452 C.3       1 <0>        -0.0008
     29 N1          5.9220    3.1435    1.1588 N.4       1 <0>        -0.3840
     30 C26         6.9189    4.2137    1.0347 C.3       1 <0>        -0.0072
     31 C27         6.8323    5.1401    2.2495 C.3       1 <0>        -0.1466
     32 C28         7.1045    4.3318    3.5214 C.3       1 <0>        -0.1390
     33 C29         6.1057    3.1738    3.6022 C.3       1 <0>        -0.1453
     34 C30         6.2192    2.3203    2.3372 C.3       1 <0>        -0.0132
     35 H1         -0.9266    1.5322    0.0358 H         1 <0>         0.1378
     36 H2          1.1131    2.9033   -0.0431 H         1 <0>         0.1353
     37 H3          3.5084   -0.6347    0.1054 H         1 <0>         0.1289
     38 H4          1.4748   -2.0149    0.1799 H         1 <0>         0.1313
     39 H5         -1.9298   -0.7426   -1.7856 H         1 <0>         0.1517
     40 H6         -4.6711   -1.0958    0.5989 H         1 <0>         0.0850
     41 H7         -4.4622   -0.6957   -1.1391 H         1 <0>         0.0841
     42 H8         -5.7900   -3.1110    0.1274 H         1 <0>         0.0856
     43 H9         -6.2048   -2.2634   -1.3930 H         1 <0>         0.0845
     44 H10        -1.1908   -3.9379   -1.7697 H         1 <0>         0.1212
     45 H11        -1.8497   -5.7823   -3.2550 H         1 <0>         0.1319
     46 H12        -5.9621   -4.8619   -2.5581 H         1 <0>         0.1301
     47 H13        -4.4310   -7.3057   -3.3704 H         1 <0>         0.3941
     48 H14         0.0419   -1.7558    2.7895 H         1 <0>         0.1242
     49 H15        -3.1544   -4.3886    3.8411 H         1 <0>         0.1353
     50 H16        -4.2214   -3.9744    1.6610 H         1 <0>         0.1286
     51 H17        -1.1836   -2.7104    5.3474 H         1 <0>         0.3925
     52 H18         4.8869    0.7046    0.9263 H         1 <0>         0.0864
     53 H19         4.8760    0.6222   -0.8517 H         1 <0>         0.1096
     54 H20         6.9081    1.7743   -0.0928 H         1 <0>         0.1490
     55 H21         5.8439    2.9299   -0.9296 H         1 <0>         0.1426
     56 H22         7.9160    3.7766    0.9821 H         1 <0>         0.1292
     57 H23         6.7257    4.7861    0.1274 H         1 <0>         0.1311
     58 H24         7.5744    5.9330    2.1563 H         1 <0>         0.1131
     59 H25         5.8356    5.5780    2.3030 H         1 <0>         0.0880
     60 H26         8.1197    3.9360    3.4914 H         1 <0>         0.0821
     61 H27         6.9884    4.9748    4.3938 H         1 <0>         0.0947
     62 H28         6.3284    2.5612    4.4758 H         1 <0>         0.1123
     63 H29         5.0939    3.5709    3.6837 H         1 <0>         0.0878
     64 H30         5.5095    1.4948    2.3915 H         1 <0>         0.1273
     65 H31         7.2312    1.9235    2.2568 H         1 <0>         0.1302
     66 H32         5.0044    3.5512    1.2574 H         1 <0>         0.4293
@<TRIPOS>BOND
     1    1    6 ar
     2    1    2 ar
     3    1   35 1
     4    2    3 ar
     5    2   36 1
     6    3    4 ar
     7    3   26 1
     8    4    5 ar
     9    4   37 1
    10    5    6 ar
    11    5   38 1
    12    6    7 1
    13    7   20 1
    14    7    8 2
    15    8    9 1
    16    8   39 1
    17    9   13 1
    18    9   10 1
    19    9   19 1
    20   10   11 1
    21   10   40 1
    22   10   41 1
    23   11   12 1
    24   11   42 1
    25   11   43 1
    26   12   17 ar
    27   12   13 ar
    28   13   14 ar
    29   14   15 ar
    30   14   44 1
    31   15   16 ar
    32   15   45 1
    33   16   17 ar
    34   16   18 1
    35   17   46 1
    36   18   47 1
    37   19   24 ar
    38   19   20 ar
    39   20   21 ar
    40   21   22 ar
    41   21   48 1
    42   22   23 ar
    43   22   25 1
    44   23   24 ar
    45   23   49 1
    46   24   50 1
    47   25   51 1
    48   26   27 1
    49   27   28 1
    50   27   52 1
    51   27   53 1
    52   28   29 1
    53   28   54 1
    54   28   55 1
    55   29   34 1
    56   29   30 1
    57   29   66 1
    58   30   31 1
    59   30   56 1
    60   30   57 1
    61   31   32 1
    62   31   58 1
    63   31   59 1
    64   32   33 1
    65   32   60 1
    66   32   61 1
    67   33   34 1
    68   33   62 1
    69   33   63 1
    70   34   64 1
    71   34   65 1
