@<TRIPOS>MOLECULE
CHEMBL203061
   38    40     0     0     0
SMALL
USER_CHARGES

@<TRIPOS>ATOM
      1 C1          1.5681    2.0262   -1.9344 C.ar      1 <0>        -0.1352
      2 C2          2.9171    2.2770   -1.7620 C.ar      1 <0>        -0.0946
      3 C3          3.7106    1.3655   -1.0938 C.ar      1 <0>        -0.1328
      4 C4          3.1522    0.1954   -0.5946 C.ar      1 <0>         0.1541
      5 C5          1.7967   -0.0534   -0.7697 C.ar      1 <0>        -0.1511
      6 C6          1.0090    0.8625   -1.4388 C.ar      1 <0>        -0.0879
      7 N1          3.9522   -0.7293    0.0815 N.pl3     1 <0>        -0.8833
      8 C7          5.1198   -0.3065    0.7218 C.ar      1 <0>         0.1140
      9 C8          6.3429   -0.8723    0.3843 C.ar      1 <0>        -0.1082
     10 C9          7.4950   -0.4521    1.0193 C.ar      1 <0>        -0.1059
     11 C10         7.4321    0.5304    1.9904 C.ar      1 <0>        -0.1106
     12 C11         6.2162    1.0955    2.3291 C.ar      1 <0>        -0.1111
     13 C12         5.0611    0.6847    1.6935 C.ar      1 <0>        -0.1073
     14 S1          3.5165   -2.3263    0.1238 S.o2      1 <0>         2.6803
     15 O1          2.5033   -2.4971   -0.8577 O.2       1 <0>        -0.9351
     16 O2          4.7230   -3.0770    0.1119 O.2       1 <0>        -0.9340
     17 C13         2.7575   -2.6180    1.6870 C.ar      1 <0>        -0.6885
     18 C14         3.5413   -2.8411    2.8039 C.ar      1 <0>         0.0038
     19 C15         2.9487   -3.0705    4.0305 C.ar      1 <0>        -0.1648
     20 C16         1.5658   -3.0763    4.1412 C.ar      1 <0>         0.1708
     21 C17         0.7815   -2.8517    3.0191 C.ar      1 <0>        -0.1646
     22 C18         1.3791   -2.6177    1.7957 C.ar      1 <0>        -0.0022
     23 O3          0.9804   -3.3021    5.3467 O.3       1 <0>        -0.4960
     24 H1          0.9489    2.7429   -2.4535 H         1 <0>         0.1263
     25 H2          3.3506    3.1867   -2.1506 H         1 <0>         0.1284
     26 H3          4.7642    1.5618   -0.9598 H         1 <0>         0.1282
     27 H4          1.3595   -0.9622   -0.3832 H         1 <0>         0.1379
     28 H5         -0.0449    0.6700   -1.5749 H         1 <0>         0.1309
     29 H6          6.3926   -1.6402   -0.3735 H         1 <0>         0.1414
     30 H7          8.4461   -0.8916    0.7574 H         1 <0>         0.1330
     31 H8          8.3346    0.8570    2.4856 H         1 <0>         0.1288
     32 H9          6.1706    1.8624    3.0882 H         1 <0>         0.1299
     33 H10         4.1125    1.1301    1.9548 H         1 <0>         0.1281
     34 H11         4.6178   -2.8365    2.7173 H         1 <0>         0.1427
     35 H12         3.5614   -3.2454    4.9025 H         1 <0>         0.1424
     36 H13        -0.2952   -2.8557    3.1027 H         1 <0>         0.1433
     37 H14         0.7690   -2.4384    0.9228 H         1 <0>         0.1471
     38 H15         0.8207   -2.5001    5.8628 H         1 <0>         0.4020
@<TRIPOS>BOND
     1    1    6 ar
     2    1    2 ar
     3    1   24 1
     4    2    3 ar
     5    2   25 1
     6    3    4 ar
     7    3   26 1
     8    4    5 ar
     9    4    7 1
    10    5    6 ar
    11    5   27 1
    12    6   28 1
    13    7    8 1
    14    7   14 1
    15    8   13 ar
    16    8    9 ar
    17    9   10 ar
    18    9   29 1
    19   10   11 ar
    20   10   30 1
    21   11   12 ar
    22   11   31 1
    23   12   13 ar
    24   12   32 1
    25   13   33 1
    26   14   15 2
    27   14   16 2
    28   14   17 1
    29   17   22 ar
    30   17   18 ar
    31   18   19 ar
    32   18   34 1
    33   19   20 ar
    34   19   35 1
    35   20   21 ar
    36   20   23 1
    37   21   22 ar
    38   21   36 1
    39   22   37 1
    40   23   38 1
