@<TRIPOS>MOLECULE
CHEMBL192539
   62    65     0     0     0
SMALL
USER_CHARGES

@<TRIPOS>ATOM
      1 C1         -0.4970    1.8423    0.1894 C.3       1 <0>        -0.1598
      2 C2         -0.4363    0.3157    0.1084 C.3       1 <0>        -0.1141
      3 C3         -1.8332   -0.2465    0.1699 C.cat     1 <0>         0.5166
      4 N1         -2.4081   -0.5547    1.2741 N.pl3     1 <0>        -0.6042
      5 C4         -3.7579   -1.0753    1.0150 C.3       1 <0>         0.1428
      6 H1         -4.5094   -0.4418    1.4863 H         1 <0>         0.1468
      7 C5         -3.8870   -1.0176   -0.5207 C.3       1 <0>         0.1563
      8 H2         -4.6997   -0.3533   -0.8143 H         1 <0>         0.1430
      9 N2         -2.5894   -0.4631   -0.9430 N.pl3     1 <0>        -0.6522
     10 C6         -4.0970   -2.3971   -1.0898 C.ar      1 <0>        -0.1336
     11 C7         -3.0188   -3.2464   -1.2566 C.ar      1 <0>        -0.0813
     12 C8         -3.2086   -4.5113   -1.7785 C.ar      1 <0>        -0.1406
     13 C9         -4.4825   -4.9293   -2.1349 C.ar      1 <0>         0.1354
     14 C10        -5.5628   -4.0754   -1.9662 C.ar      1 <0>        -0.1392
     15 C11        -5.3684   -2.8134   -1.4390 C.ar      1 <0>        -0.0697
     16 O1         -4.6718   -6.1730   -2.6490 O.3       1 <0>        -0.4923
     17 C12        -3.8809   -2.4946    1.5064 C.ar      1 <0>        -0.1462
     18 C13        -2.8203   -3.3697    1.3609 C.ar      1 <0>        -0.0513
     19 C14        -2.9307   -4.6714    1.8101 C.ar      1 <0>        -0.1379
     20 C15        -4.1068   -5.1002    2.4080 C.ar      1 <0>         0.1436
     21 C16        -5.1694   -4.2201    2.5533 C.ar      1 <0>        -0.1986
     22 C17        -5.0521   -2.9179    2.1071 C.ar      1 <0>        -0.0419
     23 O2         -4.2181   -6.3804    2.8504 O.3       1 <0>        -0.3242
     24 C18        -5.4579   -6.7522    3.4558 C.3       1 <0>         0.0247
     25 C19        -5.3952   -8.2187    3.8874 C.3       1 <0>        -0.0021
     26 N3         -4.3632   -8.3815    4.9201 N.4       1 <0>        -0.3841
     27 C20        -4.1953   -9.8082    5.2212 C.3       1 <0>        -0.0080
     28 C21        -3.0654   -9.9894    6.2371 C.3       1 <0>        -0.1466
     29 C22        -3.4150   -9.2327    7.5217 C.3       1 <0>        -0.1406
     30 C23        -3.6609   -7.7594    7.1837 C.3       1 <0>        -0.1446
     31 C24        -4.7687   -7.6608    6.1328 C.3       1 <0>        -0.0131
     32 H3          0.5134    2.2490    0.1449 H         1 <0>         0.0992
     33 H4         -1.0808    2.2276   -0.6466 H         1 <0>         0.0743
     34 H5         -0.9667    2.1381    1.1275 H         1 <0>         0.0716
     35 H6          0.0334    0.0200   -0.8296 H         1 <0>         0.1283
     36 H7          0.1475   -0.0696    0.9444 H         1 <0>         0.1260
     37 H8         -2.3186   -0.2846   -1.8571 H         1 <0>         0.4609
     38 H9         -2.0273   -2.9205   -0.9789 H         1 <0>         0.1182
     39 H10        -2.3660   -5.1741   -1.9092 H         1 <0>         0.1352
     40 H11        -6.5555   -4.3985   -2.2429 H         1 <0>         0.1391
     41 H12        -6.2097   -2.1499   -1.3033 H         1 <0>         0.1353
     42 H13        -4.8503   -6.8509   -1.9829 H         1 <0>         0.3964
     43 H14        -1.9050   -3.0353    0.8953 H         1 <0>         0.1261
     44 H15        -2.1023   -5.3547    1.6956 H         1 <0>         0.1392
     45 H16        -6.0860   -4.5515    3.0184 H         1 <0>         0.1372
     46 H17        -5.8774   -2.2312    2.2239 H         1 <0>         0.1392
     47 H18        -5.6391   -6.1241    4.3280 H         1 <0>         0.0902
     48 H19        -6.2672   -6.6190    2.7378 H         1 <0>         0.1121
     49 H20        -6.3623   -8.5208    4.2894 H         1 <0>         0.1529
     50 H21        -5.1492   -8.8405    3.0267 H         1 <0>         0.1439
     51 H22        -5.1228  -10.2032    5.6358 H         1 <0>         0.1315
     52 H23        -3.9496  -10.3459    4.3055 H         1 <0>         0.1321
     53 H24        -2.9434  -11.0492    6.4607 H         1 <0>         0.1157
     54 H25        -2.1373   -9.5949    5.8234 H         1 <0>         0.0873
     55 H26        -4.3151   -9.6604    7.9632 H         1 <0>         0.0841
     56 H27        -2.5883   -9.3116    8.2277 H         1 <0>         0.0967
     57 H28        -3.9646   -7.2252    8.0840 H         1 <0>         0.1134
     58 H29        -2.7451   -7.3186    6.7897 H         1 <0>         0.0862
     59 H30        -4.9464   -6.6132    5.8900 H         1 <0>         0.1244
     60 H31        -5.6840   -8.1016    6.5279 H         1 <0>         0.1324
     61 H32        -3.4895   -8.0058    4.5831 H         1 <0>         0.4271
     62 H33        -2.0095   -0.4585    2.1532 H         1 <0>         0.4609
@<TRIPOS>BOND
     1    1    2 1
     2    1   32 1
     3    1   33 1
     4    1   34 1
     5    2    3 1
     6    2   35 1
     7    2   36 1
     8    3    9 1
     9    3    4 2
    10    4    5 1
    11    4   62 1
    12    5    6 1
    13    5    7 1
    14    5   17 1
    15    7    8 1
    16    7    9 1
    17    7   10 1
    18    9   37 1
    19   10   15 ar
    20   10   11 ar
    21   11   12 ar
    22   11   38 1
    23   12   13 ar
    24   12   39 1
    25   13   14 ar
    26   13   16 1
    27   14   15 ar
    28   14   40 1
    29   15   41 1
    30   16   42 1
    31   17   22 ar
    32   17   18 ar
    33   18   19 ar
    34   18   43 1
    35   19   20 ar
    36   19   44 1
    37   20   21 ar
    38   20   23 1
    39   21   22 ar
    40   21   45 1
    41   22   46 1
    42   23   24 1
    43   24   25 1
    44   24   47 1
    45   24   48 1
    46   25   26 1
    47   25   49 1
    48   25   50 1
    49   26   31 1
    50   26   27 1
    51   26   61 1
    52   27   28 1
    53   27   51 1
    54   27   52 1
    55   28   29 1
    56   28   53 1
    57   28   54 1
    58   29   30 1
    59   29   55 1
    60   29   56 1
    61   30   31 1
    62   30   57 1
    63   30   58 1
    64   31   59 1
    65   31   60 1
