@<TRIPOS>MOLECULE
CHEMBL153395
   68    72     0     0     0
SMALL
USER_CHARGES

@<TRIPOS>ATOM
      1 C1         -0.0178    1.4608    0.0101 C.3       1 <0>         0.0992
      2 N1          0.0021   -0.0041    0.0020 N.pl3     1 <0>        -0.5676
      3 C2          0.0241   -0.7433    1.2666 C.3       1 <0>         0.1617
      4 C3         -1.4105   -1.0203    1.7205 C.3       1 <0>        -0.1498
      5 H1         -2.1456   -1.1187    0.9218 H         1 <0>         0.1054
      6 C4         -1.8728   -0.3803    3.0311 C.3       1 <0>        -0.1728
      7 C5         -1.6023   -1.8856    2.9677 C.3       1 <0>        -0.1026
      8 H2         -2.4637   -2.5531    2.9895 H         1 <0>         0.1141
      9 C6         -0.3636   -2.3999    3.6549 C.ar      1 <0>        -0.0513
     10 C7          0.5660   -1.5106    4.1605 C.ar      1 <0>        -0.1249
     11 C8          1.7022   -1.9823    4.7909 C.ar      1 <0>        -0.1153
     12 C9          1.9085   -3.3434    4.9161 C.ar      1 <0>        -0.1220
     13 C10         0.9784   -4.2328    4.4113 C.ar      1 <0>        -0.1126
     14 C11        -0.1599   -3.7610    3.7847 C.ar      1 <0>        -0.1080
     15 C12         0.0000   -0.6876   -1.1969 C.ar      1 <0>         0.6572
     16 N2          0.0126   -2.0171   -1.2042 N.ar      1 <0>        -0.6559
     17 C13         0.0106   -2.6754   -2.3589 C.ar      1 <0>         0.6583
     18 N3         -0.0039   -2.0045   -3.5066 N.ar      1 <0>        -0.6818
     19 C14        -0.0169   -0.6754   -3.4993 C.ar      1 <0>         0.6540
     20 N4         -0.0200   -0.0169   -2.3443 N.ar      1 <0>        -0.6770
     21 N5         -0.0315    0.0211   -4.6907 N.pl3     1 <0>        -0.5988
     22 C15        -0.0398    1.4921   -4.7069 C.3       1 <0>         0.1066
     23 C16         1.0694    1.9737   -5.6479 C.3       1 <0>        -0.0218
     24 N6          0.8954    1.3521   -6.9667 N.4       1 <0>        -0.5056
     25 C17         1.0705   -0.1019   -6.8613 C.3       1 <0>        -0.0214
     26 C18        -0.0330   -0.6864   -5.9805 C.3       1 <0>         0.1059
     27 N7          0.0241   -4.0554   -2.3664 N.pl3     1 <0>        -0.6825
     28 C19         0.0405   -4.7947   -1.1018 C.3       1 <0>         0.1422
     29 C20         0.0532   -6.2974   -1.3895 C.3       1 <0>        -0.0913
     30 C21         0.0701   -7.0579   -0.0886 C.ar      1 <0>        -0.0945
     31 C22         1.2759   -7.3895    0.5013 C.ar      1 <0>        -0.0938
     32 C23         1.2941   -8.0869    1.6936 C.ar      1 <0>        -0.1421
     33 C24         0.1013   -8.4543    2.2993 C.ar      1 <0>         0.1098
     34 C25        -1.1072   -8.1200    1.7056 C.ar      1 <0>        -0.1426
     35 C26        -1.1201   -7.4179    0.5159 C.ar      1 <0>        -0.0944
     36 O1          0.1166   -9.1409    3.4720 O.3       1 <0>        -0.4988
     37 H3          1.0048    1.8381    0.0023 H         1 <0>         0.0556
     38 H4         -0.5450    1.8219   -0.8730 H         1 <0>         0.0791
     39 H5         -0.5280    1.8123    0.9069 H         1 <0>         0.0753
     40 H6          0.5496   -1.6879    1.1262 H         1 <0>         0.0967
     41 H7          0.5371   -0.1514    2.0246 H         1 <0>         0.0834
     42 H8         -1.1549    0.2380    3.5700 H         1 <0>         0.1006
     43 H9         -2.9121   -0.0581    3.0947 H         1 <0>         0.0998
     44 H10         0.4049   -0.4471    4.0627 H         1 <0>         0.1204
     45 H11         2.4289   -1.2875    5.1853 H         1 <0>         0.1219
     46 H12         2.7966   -3.7120    5.4080 H         1 <0>         0.1217
     47 H13         1.1398   -5.2962    4.5089 H         1 <0>         0.1202
     48 H14        -0.8883   -4.4558    3.3936 H         1 <0>         0.1198
     49 H15        -1.0052    1.8490   -5.0659 H         1 <0>         0.0925
     50 H16         0.1430    1.8705   -3.7012 H         1 <0>         0.1411
     51 H17         1.0164    3.0579   -5.7472 H         1 <0>         0.1469
     52 H18         2.0401    1.6931   -5.2391 H         1 <0>         0.1337
     53 H19        -0.0307    1.5539   -7.3127 H         1 <0>         0.4287
     54 H20         1.0183   -0.5473   -7.8548 H         1 <0>         0.1472
     55 H21         2.0412   -0.3197   -6.4158 H         1 <0>         0.1336
     56 H22         0.1544   -1.7476   -5.8164 H         1 <0>         0.1417
     57 H23        -0.9976   -0.5532   -6.4702 H         1 <0>         0.0920
     58 H24         0.0226   -4.5359   -3.2091 H         1 <0>         0.4160
     59 H25         0.9321   -4.5258   -0.5353 H         1 <0>         0.0732
     60 H26        -0.8477   -4.5432   -0.5223 H         1 <0>         0.0742
     61 H27        -0.8384   -6.5663   -1.9560 H         1 <0>         0.0812
     62 H28         0.9415   -6.5489   -1.9690 H         1 <0>         0.0809
     63 H29         2.2042   -7.1033    0.0294 H         1 <0>         0.1256
     64 H30         2.2362   -8.3464    2.1536 H         1 <0>         0.1298
     65 H31        -2.0371   -8.4048    2.1752 H         1 <0>         0.1300
     66 H32        -2.0606   -7.1535    0.0556 H         1 <0>         0.1260
     67 H33         0.1129   -8.5773    4.2578 H         1 <0>         0.3926
     68 H34         1.5798    1.7266   -7.6066 H         1 <0>         0.4336
@<TRIPOS>BOND
     1    1    2 1
     2    1   37 1
     3    1   38 1
     4    1   39 1
     5    2    3 1
     6    2   15 1
     7    3    4 1
     8    3   40 1
     9    3   41 1
    10    4    5 1
    11    4    7 1
    12    4    6 1
    13    6    7 1
    14    6   42 1
    15    6   43 1
    16    7    8 1
    17    7    9 1
    18    9   14 ar
    19    9   10 ar
    20   10   11 ar
    21   10   44 1
    22   11   12 ar
    23   11   45 1
    24   12   13 ar
    25   12   46 1
    26   13   14 ar
    27   13   47 1
    28   14   48 1
    29   15   20 ar
    30   15   16 ar
    31   16   17 ar
    32   17   18 ar
    33   17   27 1
    34   18   19 ar
    35   19   20 ar
    36   19   21 1
    37   21   26 1
    38   21   22 1
    39   22   23 1
    40   22   49 1
    41   22   50 1
    42   23   24 1
    43   23   51 1
    44   23   52 1
    45   24   25 1
    46   24   53 1
    47   24   68 1
    48   25   26 1
    49   25   54 1
    50   25   55 1
    51   26   56 1
    52   26   57 1
    53   27   28 1
    54   27   58 1
    55   28   29 1
    56   28   59 1
    57   28   60 1
    58   29   30 1
    59   29   61 1
    60   29   62 1
    61   30   35 ar
    62   30   31 ar
    63   31   32 ar
    64   31   63 1
    65   32   33 ar
    66   32   64 1
    67   33   34 ar
    68   33   36 1
    69   34   35 ar
    70   34   65 1
    71   35   66 1
    72   36   67 1
