@<TRIPOS>MOLECULE
CHEMBL14955
   64    68     0     0     0
SMALL
USER_CHARGES

@<TRIPOS>ATOM
      1 C1         -0.1882    1.7739    0.1486 C.ar      1 <0>        -0.0778
      2 C2          1.0309    2.4232    0.1272 C.ar      1 <0>        -0.1438
      3 C3          2.2048    1.6894    0.0367 C.ar      1 <0>         0.1192
      4 C4          2.1511    0.3049   -0.0321 C.ar      1 <0>        -0.1436
      5 C5          0.9294   -0.3397   -0.0104 C.ar      1 <0>        -0.0810
      6 C6         -0.2391    0.3939    0.0798 C.ar      1 <0>        -0.0932
      7 C7         -1.5704   -0.3119    0.1038 C.3       1 <0>        -0.0008
      8 H1         -2.3931    0.4004    0.1653 H         1 <0>         0.1321
      9 C8         -1.6373   -1.3498    1.2465 C.3       1 <0>        -0.0889
     10 H2         -0.6239   -1.6481    1.5152 H         1 <0>         0.1240
     11 C9         -2.4209   -2.5755    0.8453 C.ar      1 <0>        -0.1228
     12 C10        -3.0115   -3.5045    1.7067 C.ar      1 <0>        -0.0734
     13 C11        -3.6907   -4.5970    1.2199 C.ar      1 <0>        -0.1445
     14 C12        -3.8088   -4.8084   -0.1472 C.ar      1 <0>         0.1398
     15 C13        -3.2370   -3.8949   -1.0201 C.ar      1 <0>        -0.1100
     16 C14        -2.5632   -2.7960   -0.5229 C.ar      1 <0>        -0.0476
     17 S1         -1.7611   -1.4341   -1.3425 S.3       1 <0>        -0.1137
     18 O1         -4.4741   -5.8939   -0.6226 O.3       1 <0>        -0.4911
     19 C15        -2.2971   -0.7186    2.4454 C.2       1 <0>         0.4118
     20 O2         -3.1272    0.1524    2.2923 O.2       1 <0>        -0.4304
     21 C16        -1.9349   -1.1580    3.7991 C.ar      1 <0>        -0.1902
     22 C17        -0.9726   -2.1594    3.9787 C.ar      1 <0>        -0.0318
     23 C18        -0.6377   -2.5658    5.2448 C.ar      1 <0>        -0.1506
     24 C19        -1.2523   -1.9856    6.3493 C.ar      1 <0>         0.1496
     25 C20        -2.2090   -0.9911    6.1764 C.ar      1 <0>        -0.2142
     26 C21        -2.5465   -0.5731    4.9148 C.ar      1 <0>        -0.0144
     27 O3         -0.9177   -2.3916    7.5998 O.3       1 <0>        -0.3233
     28 C22        -1.5871   -1.7542    8.6896 C.3       1 <0>         0.0227
     29 C23        -1.0824   -2.3390   10.0103 C.3       1 <0>        -0.0011
     30 N1          0.3465   -2.0359   10.1658 N.4       1 <0>        -0.3845
     31 C24         0.8656   -2.7273   11.3520 C.3       1 <0>        -0.0072
     32 C25         2.3709   -2.4806   11.4729 C.3       1 <0>        -0.1467
     33 C26         2.6272   -0.9765   11.6039 C.3       1 <0>        -0.1393
     34 C27         2.0163   -0.2576   10.3976 C.3       1 <0>        -0.1453
     35 C28         0.5242   -0.5867   10.3165 C.3       1 <0>        -0.0136
     36 O4          3.4054    2.3259    0.0150 O.3       1 <0>        -0.4963
     37 H3         -1.1021    2.3444    0.2235 H         1 <0>         0.1320
     38 H4          1.0701    3.5012    0.1805 H         1 <0>         0.1348
     39 H5          3.0635   -0.2686   -0.1030 H         1 <0>         0.1344
     40 H6          0.8871   -1.4176   -0.0639 H         1 <0>         0.1330
     41 H7         -2.9327   -3.3620    2.7743 H         1 <0>         0.1248
     42 H8         -4.1371   -5.2986    1.9090 H         1 <0>         0.1367
     43 H9         -3.3179   -4.0426   -2.0869 H         1 <0>         0.1412
     44 H10        -5.4184   -5.7443   -0.7669 H         1 <0>         0.3992
     45 H11        -0.4953   -2.6110    3.1216 H         1 <0>         0.1449
     46 H12         0.1044   -3.3379    5.3845 H         1 <0>         0.1428
     47 H13        -2.6838   -0.5443    7.0374 H         1 <0>         0.1362
     48 H14        -3.2860    0.2026    4.7817 H         1 <0>         0.1440
     49 H15        -1.3835   -0.6837    8.6650 H         1 <0>         0.0897
     50 H16        -2.6607   -1.9220    8.6047 H         1 <0>         0.1130
     51 H17        -1.6391   -1.9001   10.8383 H         1 <0>         0.1507
     52 H18        -1.2265   -3.4195   10.0079 H         1 <0>         0.1438
     53 H19         0.3631   -2.3483   12.2419 H         1 <0>         0.1297
     54 H20         0.6796   -3.7973   11.2587 H         1 <0>         0.1315
     55 H21         2.7541   -2.9933   12.3552 H         1 <0>         0.1136
     56 H22         2.8745   -2.8595   10.5835 H         1 <0>         0.0881
     57 H23         2.1669   -0.6067   12.5201 H         1 <0>         0.0824
     58 H24         3.7009   -0.7909   11.6335 H         1 <0>         0.0951
     59 H25         2.1460    0.8187   10.5112 H         1 <0>         0.1126
     60 H26         2.5125   -0.5904    9.4859 H         1 <0>         0.0878
     61 H27         0.0861   -0.0762    9.4588 H         1 <0>         0.1269
     62 H28         0.0289   -0.2533   11.2285 H         1 <0>         0.1310
     63 H29         3.7926    2.4650    0.8901 H         1 <0>         0.3930
     64 H30         0.8472   -2.3519    9.3488 H         1 <0>         0.4290
@<TRIPOS>BOND
     1    1    6 ar
     2    1    2 ar
     3    1   37 1
     4    2    3 ar
     5    2   38 1
     6    3    4 ar
     7    3   36 1
     8    4    5 ar
     9    4   39 1
    10    5    6 ar
    11    5   40 1
    12    6    7 1
    13    7    8 1
    14    7   17 1
    15    7    9 1
    16    9   10 1
    17    9   11 1
    18    9   19 1
    19   11   16 ar
    20   11   12 ar
    21   12   13 ar
    22   12   41 1
    23   13   14 ar
    24   13   42 1
    25   14   15 ar
    26   14   18 1
    27   15   16 ar
    28   15   43 1
    29   16   17 1
    30   18   44 1
    31   19   20 2
    32   19   21 1
    33   21   26 ar
    34   21   22 ar
    35   22   23 ar
    36   22   45 1
    37   23   24 ar
    38   23   46 1
    39   24   25 ar
    40   24   27 1
    41   25   26 ar
    42   25   47 1
    43   26   48 1
    44   27   28 1
    45   28   29 1
    46   28   49 1
    47   28   50 1
    48   29   30 1
    49   29   51 1
    50   29   52 1
    51   30   35 1
    52   30   31 1
    53   30   64 1
    54   31   32 1
    55   31   53 1
    56   31   54 1
    57   32   33 1
    58   32   55 1
    59   32   56 1
    60   33   34 1
    61   33   57 1
    62   33   58 1
    63   34   35 1
    64   34   59 1
    65   34   60 1
    66   35   61 1
    67   35   62 1
    68   36   63 1
