@<TRIPOS>MOLECULE
CHEMBL218220
   64    68     0     0     0
SMALL
USER_CHARGES

@<TRIPOS>ATOM
      1 C1          0.4730    0.0865   -1.3016 C.ar      1 <0>        -0.0629
      2 C2          1.6827    0.6988   -1.0501 C.ar      1 <0>        -0.1477
      3 C3          2.0131    1.0816    0.2429 C.ar      1 <0>         0.1297
      4 C4          1.1271    0.8499    1.2865 C.ar      1 <0>        -0.1445
      5 C5         -0.0843    0.2384    1.0414 C.ar      1 <0>        -0.0610
      6 C6         -0.4189   -0.1477   -0.2558 C.ar      1 <0>        -0.0435
      7 C7         -1.7204   -0.8058   -0.5227 C.2       1 <0>         0.1808
      8 C8         -1.9270   -1.8993   -1.3855 C.2       1 <0>        -0.1403
      9 C9         -3.2916   -2.2052   -1.3455 C.2       1 <0>         0.2630
     10 N1         -4.0244   -3.1388   -1.9619 N.2       1 <0>        -0.3713
     11 C10        -5.3182   -3.2249   -1.7544 C.2       1 <0>         0.1194
     12 C11        -5.9534   -2.3337   -0.8784 C.2       1 <0>        -0.1277
     13 C12        -5.2206   -1.3830   -0.2479 C.2       1 <0>         0.1114
     14 N2         -3.8768   -1.3154   -0.4814 N.pl3     1 <0>        -0.2881
     15 N3         -2.8786   -0.4685    0.0129 N.2       1 <0>        -0.2581
     16 C13        -5.8806   -0.4132    0.6981 C.3       1 <0>         0.5267
     17 F1         -7.2508   -0.6871    0.7657 F         1 <0>        -0.1506
     18 F2         -5.3152   -0.5453    1.9709 F         1 <0>        -0.1513
     19 F3         -5.6884    0.8931    0.2357 F         1 <0>        -0.1510
     20 C14        -6.1230   -4.2852   -2.4609 C.3       1 <0>         0.5321
     21 F4         -5.2780   -5.0468   -3.2752 F         1 <0>        -0.1513
     22 F5         -6.7321   -5.1162   -1.5146 F         1 <0>        -0.1556
     23 F6         -7.1060   -3.6769   -3.2488 F         1 <0>        -0.1555
     24 C15        -0.8935   -2.5949   -2.1855 C.ar      1 <0>        -0.0256
     25 C16        -0.9436   -2.5549   -3.5793 C.ar      1 <0>        -0.0541
     26 C17         0.0212   -3.2037   -4.3211 C.ar      1 <0>        -0.1368
     27 C18         1.0408   -3.8964   -3.6829 C.ar      1 <0>         0.1198
     28 C19         1.0938   -3.9389   -2.2964 C.ar      1 <0>        -0.1977
     29 C20         0.1362   -3.2873   -1.5477 C.ar      1 <0>        -0.0519
     30 O1          1.9897   -4.5350   -4.4175 O.3       1 <0>        -0.3274
     31 C21         3.0103   -5.2286   -3.6967 C.3       1 <0>         0.0249
     32 C22         3.9797   -5.8800   -4.6851 C.3       1 <0>        -0.0011
     33 N4          4.6608   -4.8365   -5.4629 N.4       1 <0>        -0.3840
     34 C23         5.4680   -5.4623   -6.5170 C.3       1 <0>        -0.0072
     35 C24         6.1154   -4.3777   -7.3808 C.3       1 <0>        -0.1465
     36 C25         7.0118   -3.5005   -6.5021 C.3       1 <0>        -0.1391
     37 C26         6.1746   -2.9123   -5.3626 C.3       1 <0>        -0.1451
     38 C27         5.5251   -4.0512   -4.5737 C.3       1 <0>        -0.0134
     39 O2          3.2062    1.6839    0.4877 O.3       1 <0>        -0.4994
     40 H1          0.2148   -0.2074   -2.3082 H         1 <0>         0.1313
     41 H2          2.3740    0.8804   -1.8597 H         1 <0>         0.1345
     42 H3          1.3872    1.1485    2.2912 H         1 <0>         0.1390
     43 H4         -0.7729    0.0581    1.8536 H         1 <0>         0.1354
     44 H5         -7.0175   -2.4035   -0.7074 H         1 <0>         0.1984
     45 H6         -1.7370   -2.0168   -4.0766 H         1 <0>         0.1339
     46 H7         -0.0169   -3.1732   -5.4000 H         1 <0>         0.1364
     47 H8          1.8883   -4.4794   -1.8034 H         1 <0>         0.1302
     48 H9          0.1808   -3.3168   -0.4690 H         1 <0>         0.1304
     49 H10         3.5529   -4.5240   -3.0666 H         1 <0>         0.0871
     50 H11         2.5555   -5.9982   -3.0731 H         1 <0>         0.1099
     51 H12         4.7183   -6.4653   -4.1374 H         1 <0>         0.1488
     52 H13         3.4263   -6.5332   -5.3598 H         1 <0>         0.1428
     53 H14         6.2455   -6.0763   -6.0624 H         1 <0>         0.1290
     54 H15         4.8292   -6.0888   -7.1396 H         1 <0>         0.1310
     55 H16         6.7157   -4.8444   -8.1617 H         1 <0>         0.1128
     56 H17         5.3387   -3.7633   -7.8361 H         1 <0>         0.0879
     57 H18         7.8188   -4.1044   -6.0872 H         1 <0>         0.0820
     58 H19         7.4309   -2.6922   -7.1013 H         1 <0>         0.0945
     59 H20         6.8174   -2.3315   -4.7011 H         1 <0>         0.1123
     60 H21         5.3992   -2.2674   -5.7761 H         1 <0>         0.0879
     61 H22         4.9285   -3.6358   -3.7615 H         1 <0>         0.1278
     62 H23         6.3014   -4.6952   -4.1605 H         1 <0>         0.1301
     63 H24         3.1814    2.6482    0.4192 H         1 <0>         0.3990
     64 H25         3.9734   -4.2297   -5.8841 H         1 <0>         0.4294
@<TRIPOS>BOND
     1    1    6 ar
     2    1    2 ar
     3    1   40 1
     4    2    3 ar
     5    2   41 1
     6    3    4 ar
     7    3   39 1
     8    4    5 ar
     9    4   42 1
    10    5    6 ar
    11    5   43 1
    12    6    7 1
    13    7   15 2
    14    7    8 1
    15    8    9 2
    16    8   24 1
    17    9   14 1
    18    9   10 1
    19   10   11 2
    20   11   12 1
    21   11   20 1
    22   12   13 2
    23   12   44 1
    24   13   14 1
    25   13   16 1
    26   14   15 1
    27   16   17 1
    28   16   18 1
    29   16   19 1
    30   20   21 1
    31   20   22 1
    32   20   23 1
    33   24   29 ar
    34   24   25 ar
    35   25   26 ar
    36   25   45 1
    37   26   27 ar
    38   26   46 1
    39   27   28 ar
    40   27   30 1
    41   28   29 ar
    42   28   47 1
    43   29   48 1
    44   30   31 1
    45   31   32 1
    46   31   49 1
    47   31   50 1
    48   32   33 1
    49   32   51 1
    50   32   52 1
    51   33   38 1
    52   33   34 1
    53   33   64 1
    54   34   35 1
    55   34   53 1
    56   34   54 1
    57   35   36 1
    58   35   55 1
    59   35   56 1
    60   36   37 1
    61   36   57 1
    62   36   58 1
    63   37   38 1
    64   37   59 1
    65   37   60 1
    66   38   61 1
    67   38   62 1
    68   39   63 1
