@<TRIPOS>MOLECULE
CHEMBL244207
   67    71     0     0     0
SMALL
USER_CHARGES

@<TRIPOS>ATOM
      1 C1          0.2092    1.2390    0.0011 C.ar      1 <0>        -0.0997
      2 C2          1.4323    1.8790   -0.0422 C.ar      1 <0>        -0.1000
      3 C3          2.6010    1.1365   -0.1288 C.ar      1 <0>         0.1102
      4 C4          2.5409   -0.2490   -0.1718 C.ar      1 <0>        -0.1591
      5 C5          1.3177   -0.8887   -0.1284 C.ar      1 <0>        -0.1636
      6 C6          0.1493   -0.1462   -0.0418 C.ar      1 <0>         0.0791
      7 O1         -1.0549   -0.7762    0.0013 O.3       1 <0>        -0.3266
      8 C7         -1.0420   -2.2043   -0.0470 C.3       1 <0>         0.0257
      9 C8         -2.4778   -2.7296    0.0121 C.3       1 <0>        -0.0007
     10 N1         -3.2130   -2.2802   -1.1777 N.4       1 <0>        -0.3842
     11 C9         -4.6271   -2.6507   -1.0462 C.3       1 <0>        -0.0071
     12 C10        -5.4125   -2.1141   -2.2448 C.3       1 <0>        -0.1469
     13 C11        -4.8430   -2.7165   -3.5324 C.3       1 <0>        -0.1389
     14 C12        -3.3503   -2.3866   -3.6219 C.3       1 <0>        -0.1460
     15 C13        -2.6413   -2.9131   -2.3723 C.3       1 <0>        -0.0132
     16 O2          3.8050    1.7664   -0.1720 O.3       1 <0>        -0.2398
     17 C14         4.9218    1.0006   -0.2566 C.ar      1 <0>         0.1033
     18 C15         5.5683    0.5544    0.9126 C.ar      1 <0>        -0.0673
     19 C16         5.0749    0.8890    2.1850 C.ar      1 <0>        -0.0835
     20 C17         5.7166    0.4458    3.2992 C.ar      1 <0>        -0.1302
     21 C18         6.8673   -0.3423    3.1990 C.ar      1 <0>         0.1228
     22 C19         7.3775   -0.6880    1.9684 C.ar      1 <0>        -0.1359
     23 C20         6.7338   -0.2445    0.8019 C.ar      1 <0>        -0.0243
     24 C21         7.2304   -0.5820   -0.4714 C.ar      1 <0>        -0.0917
     25 C22         6.5963   -0.1439   -1.5890 C.ar      1 <0>        -0.0949
     26 C23         5.4361    0.6439   -1.4985 C.ar      1 <0>        -0.0622
     27 C24         4.7622    1.1009   -2.7300 C.2       1 <0>        -0.0784
     28 C25         3.6592    0.4844   -3.0172 C.2       1 <0>        -0.1266
     29 C26         2.7812    0.7200   -4.2110 C.3       1 <0>        -0.5692
     30 S1          3.1697    2.3445   -4.9290 S.o2      1 <0>         2.4094
     31 O3          2.7259    2.3645   -6.2788 O.2       1 <0>        -0.9342
     32 O4          2.7260    3.3561   -4.0351 O.2       1 <0>        -0.9210
     33 C27         4.9897    2.3060   -4.9129 C.3       1 <0>        -0.5976
     34 C28         5.4478    2.2067   -3.4559 C.3       1 <0>        -0.0722
     35 O5          7.4887   -0.7710    4.3287 O.3       1 <0>        -0.4953
     36 H1         -0.7004    1.8168    0.0730 H         1 <0>         0.1432
     37 H2          1.4789    2.9575   -0.0091 H         1 <0>         0.1498
     38 H3          3.4506   -0.8271   -0.2396 H         1 <0>         0.1348
     39 H4          1.2709   -1.9672   -0.1619 H         1 <0>         0.1300
     40 H5         -0.5730   -2.5323   -0.9746 H         1 <0>         0.0846
     41 H6         -0.4783   -2.5915    0.8018 H         1 <0>         0.1079
     42 H7         -2.4652   -3.8191    0.0413 H         1 <0>         0.1483
     43 H8         -2.9679   -2.3477    0.9077 H         1 <0>         0.1429
     44 H9         -4.7160   -3.7365   -1.0108 H         1 <0>         0.1289
     45 H10        -5.0302   -2.2239   -0.1277 H         1 <0>         0.1313
     46 H11        -6.4620   -2.3917   -2.1461 H         1 <0>         0.1132
     47 H12        -5.3245   -1.0282   -2.2810 H         1 <0>         0.0884
     48 H13        -4.9771   -3.7981   -3.5192 H         1 <0>         0.0819
     49 H14        -5.3619   -2.2942   -4.3930 H         1 <0>         0.0951
     50 H15        -2.9256   -2.8591   -4.5077 H         1 <0>         0.1123
     51 H16        -3.2194   -1.3064   -3.6867 H         1 <0>         0.0885
     52 H17        -1.5782   -2.6801   -2.4329 H         1 <0>         0.1267
     53 H18        -2.7725   -3.9933   -2.3086 H         1 <0>         0.1299
     54 H19         4.1875    1.4976    2.2780 H         1 <0>         0.1341
     55 H20         5.3325    0.7063    4.2744 H         1 <0>         0.1358
     56 H21         8.2672   -1.2965    1.9004 H         1 <0>         0.1415
     57 H22         8.1182   -1.1906   -0.5594 H         1 <0>         0.1399
     58 H23         6.9860   -0.4085   -2.5608 H         1 <0>         0.1381
     59 H24         3.3383   -0.2796   -2.3246 H         1 <0>         0.1234
     60 H25         2.9594   -0.0581   -4.9532 H         1 <0>         0.1481
     61 H26         1.7356    0.6984   -3.9038 H         1 <0>         0.1406
     62 H27         5.3445    1.4413   -5.4737 H         1 <0>         0.1379
     63 H28         5.3811    3.2204   -5.3590 H         1 <0>         0.1454
     64 H29         5.2356    3.1481   -2.9490 H         1 <0>         0.1074
     65 H30         6.5232    2.0302   -3.4360 H         1 <0>         0.1042
     66 H31         7.1693   -1.6239    4.6537 H         1 <0>         0.3958
     67 H32        -3.1363   -1.2775   -1.2603 H         1 <0>         0.4298
@<TRIPOS>BOND
     1    1    6 ar
     2    1    2 ar
     3    1   36 1
     4    2    3 ar
     5    2   37 1
     6    3    4 ar
     7    3   16 1
     8    4    5 ar
     9    4   38 1
    10    5    6 ar
    11    5   39 1
    12    6    7 1
    13    7    8 1
    14    8    9 1
    15    8   40 1
    16    8   41 1
    17    9   10 1
    18    9   42 1
    19    9   43 1
    20   10   15 1
    21   10   11 1
    22   10   67 1
    23   11   12 1
    24   11   44 1
    25   11   45 1
    26   12   13 1
    27   12   46 1
    28   12   47 1
    29   13   14 1
    30   13   48 1
    31   13   49 1
    32   14   15 1
    33   14   50 1
    34   14   51 1
    35   15   52 1
    36   15   53 1
    37   16   17 1
    38   17   26 ar
    39   17   18 ar
    40   18   23 ar
    41   18   19 ar
    42   19   20 ar
    43   19   54 1
    44   20   21 ar
    45   20   55 1
    46   21   22 ar
    47   21   35 1
    48   22   23 ar
    49   22   56 1
    50   23   24 ar
    51   24   25 ar
    52   24   57 1
    53   25   26 ar
    54   25   58 1
    55   26   27 1
    56   27   34 1
    57   27   28 2
    58   28   29 1
    59   28   59 1
    60   29   30 1
    61   29   60 1
    62   29   61 1
    63   30   31 2
    64   30   32 2
    65   30   33 1
    66   33   34 1
    67   33   62 1
    68   33   63 1
    69   34   64 1
    70   34   65 1
    71   35   66 1
