@<TRIPOS>MOLECULE
CHEMBL234462
   42    45     0     0     0
SMALL
USER_CHARGES

@<TRIPOS>ATOM
      1 C1         -0.0167    1.3784    0.0096 C.ar      1 <0>        -0.0891
      2 C2          1.1695    2.0865    0.0021 C.ar      1 <0>        -0.1448
      3 C3          2.3802    1.4093   -0.0131 C.ar      1 <0>         0.1114
      4 C4          2.3963    0.0221   -0.0206 C.ar      1 <0>        -0.1471
      5 C5          1.2074   -0.6814   -0.0130 C.ar      1 <0>        -0.0741
      6 C6          0.0021   -0.0041    0.0020 C.ar      1 <0>        -0.0932
      7 C7         -1.2934   -0.7740    0.0107 C.3       1 <0>         0.1388
      8 H1         -2.0891   -0.1604   -0.4117 H         1 <0>         0.0818
      9 C8         -1.6529   -1.1704    1.4535 C.3       1 <0>        -0.1069
     10 H2         -1.6788   -0.2868    2.0912 H         1 <0>         0.0947
     11 C9         -0.5906   -2.1528    1.9549 C.3       1 <0>        -0.1155
     12 C10        -0.9734   -2.6731    3.3403 C.3       1 <0>        -0.1175
     13 C11        -2.3138   -3.4071    3.2481 C.3       1 <0>        -0.1201
     14 C12        -3.3877   -2.4247    2.7773 C.3       1 <0>        -0.1082
     15 C13        -3.0279   -1.8354    1.4179 C.3       1 <0>        -0.0404
     16 H3         -3.7667   -1.0809    1.1477 H         1 <0>         0.0820
     17 C14        -3.0538   -2.9048    0.3609 C.ar      1 <0>        -0.1314
     18 C15        -4.0246   -3.8897    0.4214 C.ar      1 <0>        -0.1086
     19 C16        -4.0721   -4.8838   -0.5424 C.ar      1 <0>         0.0725
     20 C17        -3.1430   -4.8920   -1.5725 C.ar      1 <0>        -0.1121
     21 C18        -2.1742   -3.9119   -1.6332 C.ar      1 <0>        -0.1320
     22 C19        -2.1237   -2.9138   -0.6657 C.ar      1 <0>         0.1270
     23 O1         -1.1485   -1.9709   -0.7554 O.3       1 <0>        -0.3053
     24 O2         -5.0277   -5.8492   -0.4791 O.3       1 <0>        -0.4973
     25 O3          3.5484    2.1036   -0.0209 O.3       1 <0>        -0.4995
     26 H4         -0.9594    1.9052    0.0259 H         1 <0>         0.1289
     27 H5          1.1543    3.1664    0.0076 H         1 <0>         0.1320
     28 H6          3.3375   -0.5074   -0.0328 H         1 <0>         0.1309
     29 H7          1.2194   -1.7613   -0.0189 H         1 <0>         0.1327
     30 H8         -0.5164   -2.9905    1.2615 H         1 <0>         0.0687
     31 H9          0.3727   -1.6460    2.0122 H         1 <0>         0.0690
     32 H10        -0.2056   -3.3600    3.6964 H         1 <0>         0.0634
     33 H11        -1.0635   -1.8355    4.0320 H         1 <0>         0.0621
     34 H12        -2.2322   -4.2275    2.5351 H         1 <0>         0.0648
     35 H13        -2.5831   -3.7995    4.2287 H         1 <0>         0.0641
     36 H14        -4.3441   -2.9425    2.7049 H         1 <0>         0.0686
     37 H15        -3.4736   -1.6111    3.4976 H         1 <0>         0.0674
     38 H16        -4.7482   -3.8829    1.2231 H         1 <0>         0.1325
     39 H17        -3.1778   -5.6651   -2.3259 H         1 <0>         0.1346
     40 H18        -1.4518   -3.9192   -2.4359 H         1 <0>         0.1348
     41 H19        -5.8424   -5.6277   -0.9507 H         1 <0>         0.3877
     42 H20         3.8951    2.3001    0.8601 H         1 <0>         0.3926
@<TRIPOS>BOND
     1    1    6 ar
     2    1    2 ar
     3    1   26 1
     4    2    3 ar
     5    2   27 1
     6    3    4 ar
     7    3   25 1
     8    4    5 ar
     9    4   28 1
    10    5    6 ar
    11    5   29 1
    12    6    7 1
    13    7    8 1
    14    7   23 1
    15    7    9 1
    16    9   10 1
    17    9   15 1
    18    9   11 1
    19   11   12 1
    20   11   30 1
    21   11   31 1
    22   12   13 1
    23   12   32 1
    24   12   33 1
    25   13   14 1
    26   13   34 1
    27   13   35 1
    28   14   15 1
    29   14   36 1
    30   14   37 1
    31   15   16 1
    32   15   17 1
    33   17   22 ar
    34   17   18 ar
    35   18   19 ar
    36   18   38 1
    37   19   20 ar
    38   19   24 1
    39   20   21 ar
    40   20   39 1
    41   21   22 ar
    42   21   40 1
    43   22   23 1
    44   24   41 1
    45   25   42 1
