@<TRIPOS>MOLECULE
CHEMBL56306
   66    70     0     0     0
SMALL
USER_CHARGES

@<TRIPOS>ATOM
      1 C1         -0.0399    2.2479   -0.8470 C.ar      1 <0>        -0.0694
      2 C2          0.8986    3.1913   -1.2180 C.ar      1 <0>        -0.1424
      3 C3          2.2132    2.8092   -1.4426 C.ar      1 <0>         0.1117
      4 C4          2.5818    1.4800   -1.2940 C.ar      1 <0>        -0.2005
      5 C5          1.6395    0.5405   -0.9228 C.ar      1 <0>        -0.0667
      6 C6          0.3300    0.9239   -0.6996 C.ar      1 <0>        -0.1198
      7 C7         -0.6958   -0.1031   -0.2944 C.3       1 <0>         0.1531
      8 N1         -1.4135   -0.5716   -1.4825 N.pl3     1 <0>        -0.6180
      9 C8         -0.9893   -1.7209   -2.1643 C.ar      1 <0>         0.2114
     10 C9          0.2661   -2.2485   -1.8835 C.ar      1 <0>        -0.1784
     11 C10         0.7034   -3.3815   -2.5392 C.ar      1 <0>        -0.1048
     12 C11        -0.1126   -3.9935   -3.4794 C.ar      1 <0>         0.0562
     13 C12        -1.3627   -3.4669   -3.7605 C.ar      1 <0>        -0.0999
     14 C13        -1.8041   -2.3287   -3.1060 C.ar      1 <0>        -0.1308
     15 C14        -3.1646   -1.7775   -3.4425 C.3       1 <0>        -0.0742
     16 C15        -3.6725   -0.8797   -2.3146 C.3       1 <0>        -0.1287
     17 C16        -2.5935    0.1516   -1.9757 C.3       1 <0>         0.2010
     18 C17        -3.1007    1.0881   -0.9095 C.ar      1 <0>        -0.1045
     19 C18        -3.4389    0.5959    0.3375 C.ar      1 <0>        -0.0857
     20 C19        -3.9045    1.4523    1.3164 C.ar      1 <0>        -0.1436
     21 C20        -4.0321    2.8073    1.0475 C.ar      1 <0>         0.1153
     22 C21        -3.6916    3.2988   -0.2043 C.ar      1 <0>        -0.1453
     23 C22        -3.2216    2.4390   -1.1782 C.ar      1 <0>        -0.0930
     24 O1         -4.4903    3.6517    2.0087 O.3       1 <0>        -0.4969
     25 O2          0.3151   -5.1110   -4.1260 O.3       1 <0>        -0.4996
     26 O3          3.1382    3.7353   -1.8081 O.3       1 <0>        -0.3258
     27 C23         4.4722    3.2701   -2.0226 C.3       1 <0>         0.0282
     28 C24         5.3642    4.4466   -2.4242 C.3       1 <0>         0.0013
     29 N2          5.4581    5.3940   -1.3055 N.4       1 <0>        -0.3910
     30 C25         4.1336    6.0014   -1.0554 C.3       1 <0>        -0.0010
     31 C26         4.4398    7.4646   -0.6491 C.3       1 <0>        -0.1457
     32 C27         5.6390    7.8021   -1.5736 C.3       1 <0>        -0.1420
     33 C28         6.4107    6.4676   -1.6432 C.3       1 <0>        -0.0136
     34 H1         -1.0625    2.5457   -0.6677 H         1 <0>         0.1378
     35 H2          0.6091    4.2254   -1.3334 H         1 <0>         0.1302
     36 H3          3.6045    1.1800   -1.4686 H         1 <0>         0.1264
     37 H4          1.9260   -0.4944   -0.8070 H         1 <0>         0.1299
     38 H5         -0.1969   -0.9456    0.1845 H         1 <0>         0.0840
     39 H6         -1.4027    0.3453    0.4038 H         1 <0>         0.0964
     40 H7          0.9003   -1.7707   -1.1514 H         1 <0>         0.1245
     41 H8          1.6789   -3.7905   -2.3211 H         1 <0>         0.1260
     42 H9         -1.9957   -3.9457   -4.4929 H         1 <0>         0.1285
     43 H10        -3.1000   -1.1971   -4.3629 H         1 <0>         0.0753
     44 H11        -3.8616   -2.6031   -3.5867 H         1 <0>         0.0814
     45 H12        -4.5798   -0.3679   -2.6357 H         1 <0>         0.0831
     46 H13        -3.8849   -1.4851   -1.4335 H         1 <0>         0.0748
     47 H14        -2.3328    0.7165   -2.8707 H         1 <0>         0.0752
     48 H15        -3.3394   -0.4591    0.5463 H         1 <0>         0.1301
     49 H16        -4.1692    1.0672    2.2900 H         1 <0>         0.1329
     50 H17        -3.7901    4.3532   -0.4161 H         1 <0>         0.1321
     51 H18        -2.9522    2.8218   -2.1515 H         1 <0>         0.1290
     52 H19        -3.7949    4.0292    2.5647 H         1 <0>         0.3929
     53 H20         0.0848   -5.9367   -3.6785 H         1 <0>         0.3863
     54 H21         4.8529    2.8224   -1.1046 H         1 <0>         0.0853
     55 H22         4.4737    2.5249   -2.8181 H         1 <0>         0.1085
     56 H23         6.3596    4.0792   -2.6738 H         1 <0>         0.1489
     57 H24         4.9345    4.9491   -3.2908 H         1 <0>         0.1402
     58 H25         3.5282    5.9780   -1.9614 H         1 <0>         0.1373
     59 H26         3.6246    5.4809   -0.2442 H         1 <0>         0.1337
     60 H27         3.5900    8.1141   -0.8591 H         1 <0>         0.1160
     61 H28         4.7265    7.5265    0.4007 H         1 <0>         0.0968
     62 H29         5.2913    8.0983   -2.5633 H         1 <0>         0.0985
     63 H30         6.2583    8.5829   -1.1319 H         1 <0>         0.1125
     64 H31         7.2305    6.4754   -0.9249 H         1 <0>         0.1326
     65 H32         6.7988    6.3157   -2.6504 H         1 <0>         0.1318
     66 H33         5.7704    4.9115   -0.4762 H         1 <0>         0.4243
@<TRIPOS>BOND
     1    1    6 ar
     2    1    2 ar
     3    1   34 1
     4    2    3 ar
     5    2   35 1
     6    3    4 ar
     7    3   26 1
     8    4    5 ar
     9    4   36 1
    10    5    6 ar
    11    5   37 1
    12    6    7 1
    13    7    8 1
    14    7   38 1
    15    7   39 1
    16    8   17 1
    17    8    9 1
    18    9   14 ar
    19    9   10 ar
    20   10   11 ar
    21   10   40 1
    22   11   12 ar
    23   11   41 1
    24   12   13 ar
    25   12   25 1
    26   13   14 ar
    27   13   42 1
    28   14   15 1
    29   15   16 1
    30   15   43 1
    31   15   44 1
    32   16   17 1
    33   16   45 1
    34   16   46 1
    35   17   18 1
    36   17   47 1
    37   18   23 ar
    38   18   19 ar
    39   19   20 ar
    40   19   48 1
    41   20   21 ar
    42   20   49 1
    43   21   22 ar
    44   21   24 1
    45   22   23 ar
    46   22   50 1
    47   23   51 1
    48   24   52 1
    49   25   53 1
    50   26   27 1
    51   27   28 1
    52   27   54 1
    53   27   55 1
    54   28   29 1
    55   28   56 1
    56   28   57 1
    57   29   33 1
    58   29   30 1
    59   29   66 1
    60   30   31 1
    61   30   58 1
    62   30   59 1
    63   31   32 1
    64   31   60 1
    65   31   61 1
    66   32   33 1
    67   32   62 1
    68   32   63 1
    69   33   64 1
    70   33   65 1
