@<TRIPOS>MOLECULE
CHEMBL58563
   57    60     0     0     0
SMALL
USER_CHARGES

@<TRIPOS>ATOM
      1 C1         -0.0184    1.5028    0.0103 C.3       1 <0>        -0.1188
      2 C2          0.0021   -0.0041    0.0020 C.ar      1 <0>        -0.1010
      3 C3          0.0057   -0.6863   -1.1964 C.ar      1 <0>        -0.0533
      4 C4          0.0246   -2.0801   -1.2032 C.ar      1 <0>        -0.1124
      5 C5          0.0398   -2.7803    0.0026 C.ar      1 <0>        -0.0854
      6 C6          0.0361   -2.0927    1.1974 C.ar      1 <0>        -0.1329
      7 C7          0.0230   -0.7039    1.2009 C.ar      1 <0>         0.1546
      8 O1          0.0249   -0.0290    2.3798 O.3       1 <0>        -0.4880
      9 C8          0.0281   -2.8168   -2.4901 C.ar      1 <0>         0.2481
     10 C9          0.0181   -2.1095   -3.6869 C.ar      1 <0>        -0.1754
     11 C10         0.0220   -2.8148   -4.8927 C.ar      1 <0>         0.1346
     12 C11         0.0357   -4.2098   -4.8451 C.ar      1 <0>        -0.2196
     13 C12         0.0451   -4.8451   -3.6096 C.ar      1 <0>         0.4570
     14 N1          0.0461   -4.1448   -2.4865 N.ar      1 <0>        -0.5193
     15 N2          0.0583   -6.2342   -3.5522 N.pl3     1 <0>        -0.5904
     16 C13         0.0682   -6.9136   -2.2544 C.3       1 <0>         0.0553
     17 C14         0.0623   -7.0184   -4.7897 C.3       1 <0>         0.1140
     18 C15         1.5062   -7.2778   -5.2243 C.3       1 <0>        -0.0986
     19 C16         1.5104   -8.0845   -6.4972 C.ar      1 <0>        -0.0982
     20 C17         1.5178   -9.4656   -6.4402 C.ar      1 <0>        -0.1126
     21 C18         1.5216  -10.2056   -7.6078 C.ar      1 <0>        -0.1134
     22 C19         1.5176   -9.5644   -8.8324 C.ar      1 <0>        -0.1119
     23 C20         1.5092   -8.1833   -8.8895 C.ar      1 <0>        -0.1143
     24 C21         1.5010   -7.4433   -7.7219 C.ar      1 <0>        -0.1157
     25 C22         0.0112   -2.0985   -6.1924 C.ar      1 <0>        -0.1017
     26 C23         0.0095   -2.8166   -7.3864 C.ar      1 <0>        -0.0784
     27 C24        -0.0005   -2.1454   -8.5924 C.ar      1 <0>        -0.1194
     28 C25        -0.0083   -0.7624   -8.6170 C.ar      1 <0>        -0.0772
     29 C26        -0.0061   -0.0446   -7.4346 C.ar      1 <0>        -0.1189
     30 C27        -0.0029   -0.7056   -6.2230 C.ar      1 <0>        -0.0781
     31 H1          1.0042    1.8801    0.0026 H         1 <0>         0.0838
     32 H2         -0.5455    1.8639   -0.8728 H         1 <0>         0.0751
     33 H3         -0.5286    1.8543    0.9071 H         1 <0>         0.0778
     34 H4         -0.0065   -0.1413   -2.1287 H         1 <0>         0.1439
     35 H5          0.0541   -3.8602    0.0004 H         1 <0>         0.1232
     36 H6          0.0478   -2.6344    2.1316 H         1 <0>         0.1474
     37 H7         -0.8578    0.1543    2.7295 H         1 <0>         0.4047
     38 H8          0.0072   -1.0295   -3.6845 H         1 <0>         0.1775
     39 H9          0.0387   -4.7880   -5.7573 H         1 <0>         0.1777
     40 H10        -0.9570   -7.0918   -1.9297 H         1 <0>         0.0855
     41 H11         0.5908   -7.8657   -2.3467 H         1 <0>         0.1084
     42 H12         0.5781   -6.2889   -1.5211 H         1 <0>         0.0702
     43 H13        -0.4421   -7.9694   -4.6188 H         1 <0>         0.1090
     44 H14        -0.4588   -6.4660   -5.5716 H         1 <0>         0.0972
     45 H15         2.0106   -6.3268   -5.3952 H         1 <0>         0.0795
     46 H16         2.0274   -7.8301   -4.4424 H         1 <0>         0.0837
     47 H17         1.5210   -9.9666   -5.4834 H         1 <0>         0.1222
     48 H18         1.5282  -11.2847   -7.5632 H         1 <0>         0.1269
     49 H19         1.5213  -10.1425   -9.7447 H         1 <0>         0.1269
     50 H20         1.5063   -7.6823   -9.8463 H         1 <0>         0.1264
     51 H21         1.4907   -6.3643   -7.7664 H         1 <0>         0.1195
     52 H22         0.0163   -3.8965   -7.3684 H         1 <0>         0.1293
     53 H23        -0.0018   -2.7010   -9.5185 H         1 <0>         0.1369
     54 H24        -0.0157   -0.2412   -9.5628 H         1 <0>         0.1363
     55 H25        -0.0115    1.0351   -7.4596 H         1 <0>         0.1376
     56 H26        -0.0061   -0.1442   -5.3004 H         1 <0>         0.1319
     57 H27         0.0568   -4.6142   -1.6377 H         1 <0>         0.4327
@<TRIPOS>BOND
     1    1    2 1
     2    1   31 1
     3    1   32 1
     4    1   33 1
     5    2    7 ar
     6    2    3 ar
     7    3    4 ar
     8    3   34 1
     9    4    5 ar
    10    4    9 1
    11    5    6 ar
    12    5   35 1
    13    6    7 ar
    14    6   36 1
    15    7    8 1
    16    8   37 1
    17    9   14 ar
    18    9   10 ar
    19   10   11 ar
    20   10   38 1
    21   11   12 ar
    22   11   25 1
    23   12   13 ar
    24   12   39 1
    25   13   14 ar
    26   13   15 1
    27   14   57 1
    28   15   16 1
    29   15   17 1
    30   16   40 1
    31   16   41 1
    32   16   42 1
    33   17   18 1
    34   17   43 1
    35   17   44 1
    36   18   19 1
    37   18   45 1
    38   18   46 1
    39   19   24 ar
    40   19   20 ar
    41   20   21 ar
    42   20   47 1
    43   21   22 ar
    44   21   48 1
    45   22   23 ar
    46   22   49 1
    47   23   24 ar
    48   23   50 1
    49   24   51 1
    50   25   30 ar
    51   25   26 ar
    52   26   27 ar
    53   26   52 1
    54   27   28 ar
    55   27   53 1
    56   28   29 ar
    57   28   54 1
    58   29   30 ar
    59   29   55 1
    60   30   56 1
