@<TRIPOS>MOLECULE
CHEMBL83451
   61    65     0     0     0
SMALL
USER_CHARGES

@<TRIPOS>ATOM
      1 C1         -0.2361    0.4832    1.0266 C.ar      1 <0>        -0.0572
      2 C2          0.9276    1.1907    1.2579 C.ar      1 <0>        -0.1407
      3 C3          2.1552    0.5490    1.1807 C.ar      1 <0>         0.1259
      4 C4          2.2107   -0.8022    0.8712 C.ar      1 <0>        -0.2029
      5 C5          1.0441   -1.5053    0.6408 C.ar      1 <0>        -0.0365
      6 C6         -0.1781   -0.8635    0.7184 C.ar      1 <0>        -0.1069
      7 C7         -1.4492   -1.6330    0.4670 C.3       1 <0>         0.1508
      8 H1         -2.2921   -1.0972    0.9035 H         1 <0>         0.1001
      9 C8         -1.6663   -1.7867   -1.0477 C.3       1 <0>        -0.0722
     10 H2         -1.6461   -0.8082   -1.5275 H         1 <0>         0.1435
     11 S1         -3.3003   -2.5565   -1.2752 S.3       1 <0>        -0.0727
     12 C9         -3.3054   -3.8216   -0.0422 C.ar      1 <0>        -0.1499
     13 C10        -4.2815   -4.8080   -0.0923 C.ar      1 <0>        -0.0887
     14 C11        -4.3119   -5.8063    0.8678 C.ar      1 <0>         0.1005
     15 C12        -3.3638   -5.8132    1.8804 C.ar      1 <0>        -0.1061
     16 C13        -2.3919   -4.8353    1.9287 C.ar      1 <0>        -0.1135
     17 C14        -2.3473   -3.8303    0.9653 C.ar      1 <0>         0.1189
     18 O1         -1.3488   -2.9206    1.0558 O.3       1 <0>        -0.3064
     19 O2         -5.2661   -6.7738    0.8181 O.3       1 <0>        -0.4914
     20 C15        -0.5943   -2.6688   -1.6339 C.ar      1 <0>        -0.0317
     21 C16        -0.6098   -4.0394   -1.4246 C.ar      1 <0>        -0.1590
     22 C17         0.3901   -4.8165   -1.9779 C.ar      1 <0>         0.1054
     23 N1          1.3504   -4.2687   -2.6967 N.ar      1 <0>        -0.4775
     24 C18         1.3969   -2.9692   -2.9164 C.ar      1 <0>         0.1002
     25 C19         0.4278   -2.1299   -2.4002 C.ar      1 <0>        -0.1561
     26 O3          3.3014    1.2430    1.4073 O.3       1 <0>        -0.3267
     27 C20         4.5288    0.5177    1.3107 C.3       1 <0>         0.0250
     28 C21         5.7011    1.4586    1.5959 C.3       1 <0>        -0.0008
     29 N2          5.6144    1.9434    2.9799 N.4       1 <0>        -0.3841
     30 C22         6.6446    2.9645    3.2046 C.3       1 <0>        -0.0071
     31 C23         6.5069    3.5308    4.6195 C.3       1 <0>        -0.1466
     32 C24         6.6784    2.3981    5.6357 C.3       1 <0>        -0.1391
     33 C25         5.6465    1.3044    5.3453 C.3       1 <0>        -0.1453
     34 C26         5.8162    0.8206    3.9036 C.3       1 <0>        -0.0134
     35 H3         -1.1922    0.9812    1.0910 H         1 <0>         0.1406
     36 H4          0.8818    2.2427    1.4982 H         1 <0>         0.1385
     37 H5          3.1651   -1.3039    0.8102 H         1 <0>         0.1295
     38 H6          1.0868   -2.5572    0.3999 H         1 <0>         0.1310
     39 H7         -5.0185   -4.7971   -0.8817 H         1 <0>         0.1412
     40 H8         -3.3864   -6.5871    2.6335 H         1 <0>         0.1433
     41 H9         -1.6585   -4.8490    2.7214 H         1 <0>         0.1407
     42 H10        -5.0113   -7.5515    0.3029 H         1 <0>         0.3955
     43 H11        -1.3932   -4.4938   -0.8362 H         1 <0>         0.1383
     44 H12         0.3852   -5.8848   -1.8196 H         1 <0>         0.1577
     45 H13         2.1993   -2.5566   -3.5100 H         1 <0>         0.1568
     46 H14         0.4686   -1.0671   -2.5877 H         1 <0>         0.1333
     47 H15         4.5293   -0.2941    2.0381 H         1 <0>         0.0870
     48 H16         4.6295    0.1059    0.3066 H         1 <0>         0.1104
     49 H17         6.6397    0.9222    1.4570 H         1 <0>         0.1495
     50 H18         5.6619    2.3058    0.9111 H         1 <0>         0.1430
     51 H19         7.6313    2.5163    3.0876 H         1 <0>         0.1293
     52 H20         6.5232    3.7683    2.4786 H         1 <0>         0.1312
     53 H21         7.2738    4.2874    4.7849 H         1 <0>         0.1133
     54 H22         5.5206    3.9794    4.7375 H         1 <0>         0.0880
     55 H23         7.6828    1.9828    5.5527 H         1 <0>         0.0822
     56 H24         6.5251    2.7857    6.6429 H         1 <0>         0.0949
     57 H25         5.7985    0.4697    6.0296 H         1 <0>         0.1124
     58 H26         4.6423    1.7068    5.4785 H         1 <0>         0.0879
     59 H27         5.0831    0.0417    3.6936 H         1 <0>         0.1270
     60 H28         6.8205    0.4181    3.7717 H         1 <0>         0.1305
     61 H29         4.7033    2.3474    3.1373 H         1 <0>         0.4292
@<TRIPOS>BOND
     1    1    6 ar
     2    1    2 ar
     3    1   35 1
     4    2    3 ar
     5    2   36 1
     6    3    4 ar
     7    3   26 1
     8    4    5 ar
     9    4   37 1
    10    5    6 ar
    11    5   38 1
    12    6    7 1
    13    7    8 1
    14    7   18 1
    15    7    9 1
    16    9   10 1
    17    9   11 1
    18    9   20 1
    19   11   12 1
    20   12   17 ar
    21   12   13 ar
    22   13   14 ar
    23   13   39 1
    24   14   15 ar
    25   14   19 1
    26   15   16 ar
    27   15   40 1
    28   16   17 ar
    29   16   41 1
    30   17   18 1
    31   19   42 1
    32   20   25 ar
    33   20   21 ar
    34   21   22 ar
    35   21   43 1
    36   22   23 ar
    37   22   44 1
    38   23   24 ar
    39   24   25 ar
    40   24   45 1
    41   25   46 1
    42   26   27 1
    43   27   28 1
    44   27   47 1
    45   27   48 1
    46   28   29 1
    47   28   49 1
    48   28   50 1
    49   29   34 1
    50   29   30 1
    51   29   61 1
    52   30   31 1
    53   30   51 1
    54   30   52 1
    55   31   32 1
    56   31   53 1
    57   31   54 1
    58   32   33 1
    59   32   55 1
    60   32   56 1
    61   33   34 1
    62   33   57 1
    63   33   58 1
    64   34   59 1
    65   34   60 1
