@<TRIPOS>MOLECULE
CHEMBL125362
   63    67     0     0     0
SMALL
USER_CHARGES

@<TRIPOS>ATOM
      1 C1          6.2563    5.9864    0.1809 C.ar      1 <0>        -0.1019
      2 C2          5.4099    5.3653    1.0811 C.ar      1 <0>        -0.1143
      3 C3          5.5866    4.0297    1.3912 C.ar      1 <0>        -0.0577
      4 C4          6.6101    3.3122    0.8025 C.ar      1 <0>        -0.1229
      5 C5          7.4604    3.9328   -0.1007 C.ar      1 <0>         0.1153
      6 C6          7.2807    5.2733   -0.4106 C.ar      1 <0>        -0.1334
      7 O1          8.4678    3.2292   -0.6811 O.3       1 <0>        -0.4950
      8 C7          4.6625    3.3561    2.3726 C.3       1 <0>        -0.0378
      9 H1          5.1109    2.4253    2.7200 H         1 <0>         0.1247
     10 C8          3.3186    3.0615    1.6979 C.3       1 <0>        -0.0387
     11 H2          3.4895    2.6310    0.7112 H         1 <0>         0.1465
     12 S1          2.4117    1.8842    2.7275 S.3       1 <0>        -0.0676
     13 C9          2.3431    2.6082    4.3297 C.ar      1 <0>        -0.1158
     14 C10         1.3895    2.0743    5.2059 C.ar      1 <0>        -0.0655
     15 C11         1.2487    2.5494    6.4897 C.ar      1 <0>        -0.1239
     16 C12         2.0685    3.5776    6.9324 C.ar      1 <0>         0.1347
     17 C13         3.0080    4.1141    6.0755 C.ar      1 <0>        -0.1147
     18 C14         3.1515    3.6421    4.7641 C.ar      1 <0>        -0.0778
     19 S2          4.3651    4.4513    3.7799 S.3       1 <0>        -0.0642
     20 O2          1.9469    4.0533    8.2006 O.3       1 <0>        -0.4931
     21 C15         2.5265    4.3367    1.5652 C.ar      1 <0>        -0.1020
     22 C16         2.6749    5.1275    0.4406 C.ar      1 <0>        -0.0372
     23 C17         1.9506    6.2972    0.3164 C.ar      1 <0>        -0.2014
     24 C18         1.0731    6.6785    1.3209 C.ar      1 <0>         0.1505
     25 C19         0.9253    5.8831    2.4487 C.ar      1 <0>        -0.1138
     26 C20         1.6488    4.7109    2.5655 C.ar      1 <0>        -0.0405
     27 Br1        -0.2691    6.3991    3.8209 Br        1 <0>        -0.0260
     28 O3          0.3597    7.8292    1.2011 O.3       1 <0>        -0.3151
     29 C21         0.5630    8.5979    0.0138 C.3       1 <0>         0.0230
     30 C22        -0.3188    9.8475    0.0581 C.3       1 <0>        -0.0010
     31 N1          0.1266   10.7226    1.1507 N.4       1 <0>        -0.3854
     32 C23        -0.7934   11.8600    1.2706 C.3       1 <0>        -0.0068
     33 C24        -0.3809   12.7316    2.4587 C.3       1 <0>        -0.1472
     34 C25         1.0440   13.2468    2.2364 C.3       1 <0>        -0.1384
     35 C26         1.9828   12.0532    2.0386 C.3       1 <0>        -0.1458
     36 C27         1.4827   11.2067    0.8660 C.3       1 <0>        -0.0135
     37 H3          6.1134    7.0287   -0.0631 H         1 <0>         0.1285
     38 H4          4.6097    5.9247    1.5429 H         1 <0>         0.1319
     39 H5          6.7482    2.2690    1.0457 H         1 <0>         0.1352
     40 H6          7.9412    5.7587   -1.1138 H         1 <0>         0.1335
     41 H7          8.2202    2.8001   -1.5116 H         1 <0>         0.3959
     42 H8          0.7510    1.2721    4.8665 H         1 <0>         0.1395
     43 H9          0.5051    2.1250    7.1480 H         1 <0>         0.1439
     44 H10         3.6457    4.9135    6.4230 H         1 <0>         0.1376
     45 H11         2.5043    3.5982    8.8465 H         1 <0>         0.3990
     46 H12         3.3581    4.8305   -0.3414 H         1 <0>         0.1386
     47 H13         2.0676    6.9146   -0.5619 H         1 <0>         0.1385
     48 H14         1.5314    4.0893    3.4409 H         1 <0>         0.1587
     49 H15         1.6099    8.8941   -0.0525 H         1 <0>         0.0889
     50 H16         0.2993    7.9978   -0.8571 H         1 <0>         0.1122
     51 H17        -0.2409   10.3808   -0.8893 H         1 <0>         0.1504
     52 H18        -1.3552    9.5550    0.2263 H         1 <0>         0.1441
     53 H19        -0.7588   12.4526    0.3564 H         1 <0>         0.1295
     54 H20        -1.8076   11.4917    1.4255 H         1 <0>         0.1313
     55 H21        -1.0641   13.5765    2.5449 H         1 <0>         0.1132
     56 H22        -0.4155   12.1399    3.3735 H         1 <0>         0.0883
     57 H23         1.0683   13.8805    1.3499 H         1 <0>         0.0820
     58 H24         1.3635   13.8216    3.1057 H         1 <0>         0.0947
     59 H25         2.9891   12.4131    1.8245 H         1 <0>         0.1123
     60 H26         1.9973   11.4474    2.9447 H         1 <0>         0.0884
     61 H27         2.1490   10.3561    0.7223 H         1 <0>         0.1270
     62 H28         1.4688   11.8133   -0.0395 H         1 <0>         0.1306
     63 H29         0.1306   10.2033    2.0158 H         1 <0>         0.4300
@<TRIPOS>BOND
     1    1    6 ar
     2    1    2 ar
     3    1   37 1
     4    2    3 ar
     5    2   38 1
     6    3    4 ar
     7    3    8 1
     8    4    5 ar
     9    4   39 1
    10    5    6 ar
    11    5    7 1
    12    6   40 1
    13    7   41 1
    14    8    9 1
    15    8   19 1
    16    8   10 1
    17   10   11 1
    18   10   12 1
    19   10   21 1
    20   12   13 1
    21   13   18 ar
    22   13   14 ar
    23   14   15 ar
    24   14   42 1
    25   15   16 ar
    26   15   43 1
    27   16   17 ar
    28   16   20 1
    29   17   18 ar
    30   17   44 1
    31   18   19 1
    32   20   45 1
    33   21   26 ar
    34   21   22 ar
    35   22   23 ar
    36   22   46 1
    37   23   24 ar
    38   23   47 1
    39   24   25 ar
    40   24   28 1
    41   25   26 ar
    42   25   27 1
    43   26   48 1
    44   28   29 1
    45   29   30 1
    46   29   49 1
    47   29   50 1
    48   30   31 1
    49   30   51 1
    50   30   52 1
    51   31   36 1
    52   31   32 1
    53   31   63 1
    54   32   33 1
    55   32   53 1
    56   32   54 1
    57   33   34 1
    58   33   55 1
    59   33   56 1
    60   34   35 1
    61   34   57 1
    62   34   58 1
    63   35   36 1
    64   35   59 1
    65   35   60 1
    66   36   61 1
    67   36   62 1
