@<TRIPOS>MOLECULE
CHEMBL209402
   48    50     0     0     0
SMALL
USER_CHARGES

@<TRIPOS>ATOM
      1 C1          0.1997    1.5110    0.2932 C.3       1 <0>        -0.1540
      2 C2          0.2222   -0.0188    0.2755 C.3       1 <0>        -0.1255
      3 C3          0.8025   -0.5050   -1.0541 C.3       1 <0>        -0.1219
      4 C4          0.8250   -2.0347   -1.0717 C.3       1 <0>        -0.0991
      5 C5          1.4052   -2.5210   -2.4013 C.3       1 <0>        -0.0389
      6 C6          2.8342   -2.0127   -2.6076 C.3       1 <0>        -0.1062
      7 C7          3.7256   -2.6226   -1.5204 C.3       1 <0>        -0.1690
      8 C8          3.6434   -4.1245   -1.5517 C.2       1 <0>         0.3925
      9 O1          4.5840   -4.7818   -1.1534 O.2       1 <0>        -0.4602
     10 C9          2.4938   -4.7827   -2.0346 C.2       1 <0>        -0.1860
     11 C10         1.4503   -4.0425   -2.4712 C.2       1 <0>         0.0154
     12 C11         0.2147   -4.4593   -3.1136 C.ar      1 <0>        -0.0967
     13 C12        -0.4285   -5.7089   -3.0950 C.ar      1 <0>        -0.0616
     14 C13        -1.5869   -5.8309   -3.8383 C.ar      1 <0>        -0.1570
     15 C14        -2.0979   -4.7710   -4.5742 C.ar      1 <0>         0.1271
     16 C15        -1.4771   -3.5196   -4.5890 C.ar      1 <0>        -0.1353
     17 C16        -0.3296   -3.3763   -3.8389 C.ar      1 <0>        -0.0533
     18 C17         0.4954   -2.1449   -3.5868 C.3       1 <0>        -0.0800
     19 O2         -3.2304   -4.9552   -5.2989 O.3       1 <0>        -0.4992
     20 C18         2.4293   -6.2881   -2.0636 C.3       1 <0>        -0.0754
     21 C19         1.9423   -6.8039   -0.7080 C.3       1 <0>        -0.1178
     22 C20         1.8769   -8.3322   -0.7375 C.3       1 <0>        -0.1531
     23 H1          1.2151    1.8906    0.1793 H         1 <0>         0.0542
     24 H2         -0.4183    1.8747   -0.5277 H         1 <0>         0.0537
     25 H3         -0.2136    1.8574    1.2404 H         1 <0>         0.0540
     26 H4          0.8403   -0.3825    1.0964 H         1 <0>         0.0614
     27 H5         -0.7932   -0.3984    0.3893 H         1 <0>         0.0609
     28 H6          0.1844   -0.1412   -1.8749 H         1 <0>         0.0664
     29 H7          1.8179   -0.1254   -1.1679 H         1 <0>         0.0683
     30 H8          1.4430   -2.3985   -0.2508 H         1 <0>         0.0698
     31 H9         -0.1904   -2.4144   -0.9579 H         1 <0>         0.0695
     32 H10         3.1937   -2.3168   -3.5906 H         1 <0>         0.0742
     33 H11         2.8520   -0.9256   -2.5298 H         1 <0>         0.0857
     34 H12         4.7580   -2.3154   -1.6877 H         1 <0>         0.0967
     35 H13         3.3982   -2.2647   -0.5443 H         1 <0>         0.1025
     36 H14        -0.0348   -6.5371   -2.5246 H         1 <0>         0.1423
     37 H15        -2.1084   -6.7766   -3.8472 H         1 <0>         0.1314
     38 H16        -1.8798   -2.6986   -5.1636 H         1 <0>         0.1400
     39 H17        -0.1469   -1.3051   -3.3214 H         1 <0>         0.0932
     40 H18         1.0951   -1.9032   -4.4643 H         1 <0>         0.0925
     41 H19        -4.0438   -4.7600   -4.8138 H         1 <0>         0.3943
     42 H20         1.7379   -6.6072   -2.8435 H         1 <0>         0.0748
     43 H21         3.4211   -6.6903   -2.2704 H         1 <0>         0.0777
     44 H22         2.6337   -6.4848    0.0719 H         1 <0>         0.0651
     45 H23         0.9505   -6.4017   -0.5012 H         1 <0>         0.0602
     46 H24         1.1855   -8.6513   -1.5174 H         1 <0>         0.0534
     47 H25         2.8686   -8.7344   -0.9443 H         1 <0>         0.0568
     48 H26         1.5299   -8.6997    0.2283 H         1 <0>         0.0563
@<TRIPOS>BOND
     1    1    2 1
     2    1   23 1
     3    1   24 1
     4    1   25 1
     5    2    3 1
     6    2   26 1
     7    2   27 1
     8    3    4 1
     9    3   28 1
    10    3   29 1
    11    4    5 1
    12    4   30 1
    13    4   31 1
    14    5   11 1
    15    5   18 1
    16    5    6 1
    17    6    7 1
    18    6   32 1
    19    6   33 1
    20    7    8 1
    21    7   34 1
    22    7   35 1
    23    8    9 2
    24    8   10 1
    25   10   11 2
    26   10   20 1
    27   11   12 1
    28   12   17 ar
    29   12   13 ar
    30   13   14 ar
    31   13   36 1
    32   14   15 ar
    33   14   37 1
    34   15   16 ar
    35   15   19 1
    36   16   17 ar
    37   16   38 1
    38   17   18 1
    39   18   39 1
    40   18   40 1
    41   19   41 1
    42   20   21 1
    43   20   42 1
    44   20   43 1
    45   21   22 1
    46   21   44 1
    47   21   45 1
    48   22   46 1
    49   22   47 1
    50   22   48 1
