@<TRIPOS>MOLECULE
CHEMBL93586
   61    65     0     0     0
SMALL
USER_CHARGES

@<TRIPOS>ATOM
      1 C1          1.3242    2.0222    0.5747 C.ar      1 <0>        -0.1144
      2 C2          1.0417    0.7396    1.0062 C.ar      1 <0>        -0.1199
      3 C3          1.9945   -0.2549    0.8880 C.ar      1 <0>        -0.1032
      4 C4          3.2295    0.0329    0.3378 C.ar      1 <0>        -0.0955
      5 C5          3.5116    1.3152   -0.0946 C.ar      1 <0>        -0.1057
      6 C6          2.5594    2.3101    0.0249 C.ar      1 <0>        -0.1170
      7 C7          4.2685   -1.0511    0.2098 C.3       1 <0>         0.2352
      8 C8          4.5037   -1.6827    1.5591 C.ar      1 <0>        -0.0967
      9 C9          5.1787   -0.9342    2.5146 C.ar      1 <0>        -0.0874
     10 C10         5.4163   -1.4503    3.7707 C.ar      1 <0>        -0.1443
     11 C11         4.9756   -2.7286    4.0825 C.ar      1 <0>         0.1124
     12 C12         4.3066   -3.4752    3.1283 C.ar      1 <0>        -0.1473
     13 C13         4.0735   -2.9556    1.8614 C.ar      1 <0>        -0.0483
     14 C14         3.3637   -3.8360    0.8668 C.3       1 <0>        -0.1011
     15 C15         2.7639   -3.0037   -0.2654 C.3       1 <0>         0.1081
     16 N1          3.7985   -2.0683   -0.7367 N.pl3     1 <0>        -0.6106
     17 C16         4.3103   -2.1464   -2.0280 C.ar      1 <0>         0.2465
     18 C17         5.2056   -1.1803   -2.4795 C.ar      1 <0>        -0.2023
     19 C18         5.7120   -1.2532   -3.7514 C.ar      1 <0>        -0.0354
     20 C19         5.3279   -2.3014   -4.5967 C.ar      1 <0>        -0.1476
     21 C20         4.4276   -3.2711   -4.1385 C.ar      1 <0>        -0.0423
     22 C21         3.9301   -3.1935   -2.8633 C.ar      1 <0>        -0.2027
     23 C22         5.8677   -2.3833   -5.9608 C.2       1 <0>         0.0121
     24 C23         5.4960   -3.3950   -6.7744 C.2       1 <0>        -0.2468
     25 C24         6.0331   -3.4764   -8.1317 C.2       1 <0>         0.5550
     26 O1          6.7630   -2.5972   -8.5512 O.2       1 <0>        -0.5466
     27 N2          5.7200   -4.5250   -8.9184 N.am      1 <0>        -0.6163
     28 C25         4.9069   -5.6397   -8.4069 C.3       1 <0>         0.0711
     29 C26         3.7622   -5.8958   -9.3938 C.3       1 <0>         0.0453
     30 O2          4.3007   -6.0539  -10.7086 O.3       1 <0>        -0.3784
     31 C27         4.9739   -4.8960  -11.2084 C.3       1 <0>         0.0474
     32 C28         6.1760   -4.5860  -10.3162 C.3       1 <0>         0.0767
     33 O3          5.2003   -3.2453    5.3192 O.3       1 <0>        -0.4988
     34 H1          0.5782    2.7982    0.6629 H         1 <0>         0.1227
     35 H2          0.0768    0.5147    1.4361 H         1 <0>         0.1223
     36 H3          1.7740   -1.2568    1.2258 H         1 <0>         0.1222
     37 H4          4.4767    1.5402   -0.5241 H         1 <0>         0.1218
     38 H5          2.7800    3.3121   -0.3125 H         1 <0>         0.1242
     39 H6          5.2003   -0.6191   -0.1551 H         1 <0>         0.1058
     40 H7          5.5208    0.0609    2.2713 H         1 <0>         0.1276
     41 H8          5.9431   -0.8629    4.5081 H         1 <0>         0.1315
     42 H9          3.9629   -4.4699    3.3707 H         1 <0>         0.1293
     43 H10         4.0736   -4.5501    0.4495 H         1 <0>         0.0855
     44 H11         2.5662   -4.3791    1.3738 H         1 <0>         0.0882
     45 H12         2.4585   -3.6579   -1.0821 H         1 <0>         0.0938
     46 H13         1.9028   -2.4462    0.1030 H         1 <0>         0.0794
     47 H14         5.5013   -0.3721   -1.8268 H         1 <0>         0.1238
     48 H15         6.4059   -0.5030   -4.1010 H         1 <0>         0.1279
     49 H16         4.1285   -4.0809   -4.7874 H         1 <0>         0.1251
     50 H17         3.2391   -3.9434   -2.5076 H         1 <0>         0.1268
     51 H18         6.5617   -1.6344   -6.3128 H         1 <0>         0.1321
     52 H19         4.8020   -4.1439   -6.4224 H         1 <0>         0.1290
     53 H20         5.5237   -6.5342   -8.3199 H         1 <0>         0.0799
     54 H21         4.4985   -5.3784   -7.4307 H         1 <0>         0.0981
     55 H22         3.2301   -6.8028   -9.1068 H         1 <0>         0.1082
     56 H23         3.0746   -5.0501   -9.3812 H         1 <0>         0.0574
     57 H24         5.3137   -5.0837  -12.2270 H         1 <0>         0.1089
     58 H25         4.2908   -4.0467  -11.2024 H         1 <0>         0.0564
     59 H26         6.6077   -3.6273  -10.6037 H         1 <0>         0.1025
     60 H27         6.9227   -5.3727  -10.4247 H         1 <0>         0.0762
     61 H28         4.4962   -3.0616    5.9561 H         1 <0>         0.3924
@<TRIPOS>BOND
     1    1    6 ar
     2    1    2 ar
     3    1   34 1
     4    2    3 ar
     5    2   35 1
     6    3    4 ar
     7    3   36 1
     8    4    5 ar
     9    4    7 1
    10    5    6 ar
    11    5   37 1
    12    6   38 1
    13    7   16 1
    14    7    8 1
    15    7   39 1
    16    8   13 ar
    17    8    9 ar
    18    9   10 ar
    19    9   40 1
    20   10   11 ar
    21   10   41 1
    22   11   12 ar
    23   11   33 1
    24   12   13 ar
    25   12   42 1
    26   13   14 1
    27   14   15 1
    28   14   43 1
    29   14   44 1
    30   15   16 1
    31   15   45 1
    32   15   46 1
    33   16   17 1
    34   17   22 ar
    35   17   18 ar
    36   18   19 ar
    37   18   47 1
    38   19   20 ar
    39   19   48 1
    40   20   21 ar
    41   20   23 1
    42   21   22 ar
    43   21   49 1
    44   22   50 1
    45   23   24 2
    46   23   51 1
    47   24   25 1
    48   24   52 1
    49   25   26 2
    50   25   27 am
    51   27   32 1
    52   27   28 1
    53   28   29 1
    54   28   53 1
    55   28   54 1
    56   29   30 1
    57   29   55 1
    58   29   56 1
    59   30   31 1
    60   31   32 1
    61   31   57 1
    62   31   58 1
    63   32   59 1
    64   32   60 1
    65   33   61 1
