@<TRIPOS>MOLECULE
CHEMBL369545
   66    70     0     0     0
SMALL
USER_CHARGES

@<TRIPOS>ATOM
      1 C1          2.0686   -1.4959    1.7680 C.3       1 <0>        -0.1561
      2 C2          1.5486   -1.1140    0.3807 C.3       1 <0>        -0.1449
      3 C3          0.0526   -1.4224    0.2940 C.3       1 <0>         0.0380
      4 H1         -0.4704   -0.9161    1.1054 H         1 <0>         0.1524
      5 C4         -0.1645   -2.9324    0.4112 C.3       1 <0>         0.0311
      6 O1          0.6141   -3.6040   -0.5811 O.3       1 <0>        -0.3221
      7 C5          0.5348   -4.9603   -0.6139 C.ar      1 <0>         0.1254
      8 C6         -0.2801   -5.6306    0.2867 C.ar      1 <0>        -0.2038
      9 C7         -0.3594   -7.0093    0.2510 C.ar      1 <0>        -0.0580
     10 C8          0.3730   -7.7212   -0.6809 C.ar      1 <0>        -0.1042
     11 C9          1.1864   -7.0555   -1.5793 C.ar      1 <0>        -0.0349
     12 C10         1.2643   -5.6765   -1.5518 C.ar      1 <0>        -0.1429
     13 C11         0.2851   -9.2252   -0.7173 C.3       1 <0>         0.1492
     14 H2         -0.0910   -9.5915    0.2379 H         1 <0>         0.0961
     15 C12        -0.6670   -9.6575   -1.8449 C.3       1 <0>        -0.0647
     16 H3         -1.6327   -9.1664   -1.7251 H         1 <0>         0.1384
     17 S1         -0.8669  -11.4620   -1.7094 S.3       1 <0>        -0.0812
     18 C13         0.7854  -12.0113   -1.4112 C.ar      1 <0>        -0.1487
     19 C14         1.0780  -13.3637   -1.5294 C.ar      1 <0>        -0.0896
     20 C15         2.3643  -13.8207   -1.2926 C.ar      1 <0>         0.0990
     21 C16         3.3569  -12.9204   -0.9341 C.ar      1 <0>        -0.1066
     22 C17         3.0674  -11.5763   -0.8197 C.ar      1 <0>        -0.1142
     23 C18         1.7795  -11.1043   -1.0617 C.ar      1 <0>         0.1204
     24 O2          1.5728   -9.7702   -0.9610 O.3       1 <0>        -0.3052
     25 O3          2.6520  -15.1444   -1.4104 O.3       1 <0>        -0.4917
     26 C19        -0.0729   -9.3032   -3.1837 C.ar      1 <0>        -0.0886
     27 C20        -0.5624   -8.2209   -3.8914 C.ar      1 <0>        -0.0834
     28 C21        -0.0198   -7.8943   -5.1191 C.ar      1 <0>        -0.1457
     29 C22         1.0174   -8.6531   -5.6417 C.ar      1 <0>         0.1151
     30 C23         1.5071   -9.7383   -4.9295 C.ar      1 <0>        -0.1392
     31 C24         0.9645  -10.0576   -3.6998 C.ar      1 <0>        -0.0877
     32 O4          1.5526   -8.3341   -6.8495 O.3       1 <0>        -0.4972
     33 N1         -0.4707   -0.9511   -0.9952 N.4       1 <0>        -0.3933
     34 C25        -1.9452   -1.1239   -1.0435 C.3       1 <0>        -0.0095
     35 C26        -2.3848   -0.1152   -2.1343 C.3       1 <0>        -0.1439
     36 C27        -1.4392    1.0846   -1.8968 C.3       1 <0>        -0.1443
     37 C28        -0.2298    0.5006   -1.1433 C.3       1 <0>        -0.0095
     38 H4          3.1463   -1.3376    1.8084 H         1 <0>         0.0794
     39 H5          1.5819   -0.8768    2.5216 H         1 <0>         0.0665
     40 H6          1.8480   -2.5455    1.9624 H         1 <0>         0.0654
     41 H7          1.7105   -0.0493    0.2124 H         1 <0>         0.0889
     42 H8          2.0822   -1.6869   -0.3777 H         1 <0>         0.0965
     43 H9          0.1422   -3.2678    1.4020 H         1 <0>         0.1096
     44 H10        -1.2197   -3.1606    0.2609 H         1 <0>         0.0858
     45 H11        -0.8519   -5.0751    1.0153 H         1 <0>         0.1307
     46 H12        -0.9937   -7.5316    0.9519 H         1 <0>         0.1346
     47 H13         1.7578   -7.6138   -2.3061 H         1 <0>         0.1379
     48 H14         1.8963   -5.1567   -2.2566 H         1 <0>         0.1341
     49 H15         0.3012  -14.0607   -1.8070 H         1 <0>         0.1407
     50 H16         4.3600  -13.2728   -0.7443 H         1 <0>         0.1428
     51 H17         3.8470  -10.8834   -0.5396 H         1 <0>         0.1410
     52 H18         2.9345  -15.4081   -2.2968 H         1 <0>         0.3949
     53 H19        -1.3699   -7.6306   -3.4841 H         1 <0>         0.1235
     54 H20        -0.4029   -7.0493   -5.6718 H         1 <0>         0.1295
     55 H21         2.3145  -10.3305   -5.3342 H         1 <0>         0.1312
     56 H22         1.3483  -10.8997   -3.1430 H         1 <0>         0.1321
     57 H23         2.2939   -7.7151   -6.8001 H         1 <0>         0.3922
     58 H24        -2.2038   -2.1421   -1.3344 H         1 <0>         0.1331
     59 H25        -2.3938   -0.8715   -0.0827 H         1 <0>         0.1342
     60 H26        -2.2346   -0.5335   -3.1295 H         1 <0>         0.0984
     61 H27        -3.4245    0.1789   -1.9911 H         1 <0>         0.1175
     62 H28        -1.1222    1.5106   -2.8487 H         1 <0>         0.1058
     63 H29        -1.9342    1.8418   -1.2887 H         1 <0>         0.1045
     64 H30        -0.1448    0.9651   -0.1609 H         1 <0>         0.1311
     65 H31         0.6817    0.6692   -1.7168 H         1 <0>         0.1325
     66 H32        -0.0353   -1.4552   -1.7531 H         1 <0>         0.4313
@<TRIPOS>BOND
     1    1    2 1
     2    1   38 1
     3    1   39 1
     4    1   40 1
     5    2    3 1
     6    2   41 1
     7    2   42 1
     8    3    4 1
     9    3    5 1
    10    3   33 1
    11    5    6 1
    12    5   43 1
    13    5   44 1
    14    6    7 1
    15    7   12 ar
    16    7    8 ar
    17    8    9 ar
    18    8   45 1
    19    9   10 ar
    20    9   46 1
    21   10   11 ar
    22   10   13 1
    23   11   12 ar
    24   11   47 1
    25   12   48 1
    26   13   14 1
    27   13   24 1
    28   13   15 1
    29   15   16 1
    30   15   17 1
    31   15   26 1
    32   17   18 1
    33   18   23 ar
    34   18   19 ar
    35   19   20 ar
    36   19   49 1
    37   20   21 ar
    38   20   25 1
    39   21   22 ar
    40   21   50 1
    41   22   23 ar
    42   22   51 1
    43   23   24 1
    44   25   52 1
    45   26   31 ar
    46   26   27 ar
    47   27   28 ar
    48   27   53 1
    49   28   29 ar
    50   28   54 1
    51   29   30 ar
    52   29   32 1
    53   30   31 ar
    54   30   55 1
    55   31   56 1
    56   32   57 1
    57   33   37 1
    58   33   34 1
    59   33   66 1
    60   34   35 1
    61   34   58 1
    62   34   59 1
    63   35   36 1
    64   35   60 1
    65   35   61 1
    66   36   37 1
    67   36   62 1
    68   36   63 1
    69   37   64 1
    70   37   65 1
