@<TRIPOS>MOLECULE
CHEMBL113704
   34    36     0     0     0
SMALL
USER_CHARGES

@<TRIPOS>ATOM
      1 C1          0.1362    1.5255    0.0966 C.3       1 <0>        -0.1401
      2 C2          0.1566   -0.0044    0.0858 C.3       1 <0>        -0.1628
      3 C3          0.7687   -0.5101   -1.2287 C.3       1 <0>         0.1490
      4 O1          2.1091   -0.0323   -1.3404 O.3       1 <0>        -0.2946
      5 C4          2.9662   -0.2526   -0.3153 C.ar      1 <0>         0.1703
      6 C5          4.3357   -0.2411   -0.5424 C.ar      1 <0>        -0.1487
      7 C6          5.2133   -0.4593    0.4999 C.ar      1 <0>        -0.0753
      8 C7          4.7415   -0.6922    1.7869 C.ar      1 <0>         0.0639
      9 C8          3.3810   -0.7094    2.0335 C.ar      1 <0>        -0.0523
     10 C9          2.4878   -0.4925    0.9824 C.ar      1 <0>        -0.2261
     11 C10         1.0327   -0.5179    1.2147 C.2       1 <0>         0.4084
     12 O2          0.5596   -0.9275    2.2538 O.2       1 <0>        -0.4356
     13 O3          5.6189   -0.9038    2.8041 O.3       1 <0>        -0.4926
     14 C11         0.7698   -2.0171   -1.2360 C.ar      1 <0>        -0.1441
     15 C12        -0.4264   -2.7084   -1.1814 C.ar      1 <0>        -0.0870
     16 C13        -0.4281   -4.0898   -1.1874 C.ar      1 <0>        -0.1417
     17 C14         0.7718   -4.7835   -1.2488 C.ar      1 <0>         0.1146
     18 C15         1.9706   -4.0876   -1.3040 C.ar      1 <0>        -0.1402
     19 C16         1.9667   -2.7061   -1.3029 C.ar      1 <0>        -0.0892
     20 O4          0.7728   -6.1425   -1.2544 O.3       1 <0>        -0.4980
     21 H1          1.1500    1.9033   -0.0350 H         1 <0>         0.0679
     22 H2         -0.4944    1.8861   -0.7160 H         1 <0>         0.0775
     23 H3         -0.2618    1.8768    1.0486 H         1 <0>         0.0686
     24 H4         -0.8568   -0.3899    0.1975 H         1 <0>         0.1183
     25 H5          0.1802   -0.1423   -2.0692 H         1 <0>         0.1435
     26 H6          4.7153   -0.0612   -1.5374 H         1 <0>         0.1459
     27 H7          6.2772   -0.4494    0.3141 H         1 <0>         0.1430
     28 H8          3.0117   -0.8902    3.0322 H         1 <0>         0.1422
     29 H9          5.8917   -0.0972    3.2624 H         1 <0>         0.3912
     30 H10        -1.3602   -2.1679   -1.1336 H         1 <0>         0.1317
     31 H11        -1.3627   -4.6293   -1.1441 H         1 <0>         0.1340
     32 H12         2.9060   -4.6253   -1.3518 H         1 <0>         0.1324
     33 H13         2.8995   -2.1638   -1.3503 H         1 <0>         0.1319
     34 H14         0.7300   -6.5322   -2.1384 H         1 <0>         0.3936
@<TRIPOS>BOND
     1    1    2 1
     2    1   21 1
     3    1   22 1
     4    1   23 1
     5    2   11 1
     6    2    3 1
     7    2   24 1
     8    3    4 1
     9    3   14 1
    10    3   25 1
    11    4    5 1
    12    5   10 ar
    13    5    6 ar
    14    6    7 ar
    15    6   26 1
    16    7    8 ar
    17    7   27 1
    18    8    9 ar
    19    8   13 1
    20    9   10 ar
    21    9   28 1
    22   10   11 1
    23   11   12 2
    24   13   29 1
    25   14   19 ar
    26   14   15 ar
    27   15   16 ar
    28   15   30 1
    29   16   17 ar
    30   16   31 1
    31   17   18 ar
    32   17   20 1
    33   18   19 ar
    34   18   32 1
    35   19   33 1
    36   20   34 1
