@<TRIPOS>MOLECULE
CHEMBL12987
   66    71     0     0     0
SMALL
USER_CHARGES

@<TRIPOS>ATOM
      1 C1          0.1595    0.8654    0.4243 C.ar      1 <0>        -0.0918
      2 C2          1.2876    1.6617    0.4345 C.ar      1 <0>        -0.1154
      3 C3          2.5147    1.1316    0.0635 C.ar      1 <0>         0.1005
      4 C4          2.6097   -0.1987   -0.3182 C.ar      1 <0>        -0.1799
      5 C5          1.4827   -0.9966   -0.3287 C.ar      1 <0>        -0.1064
      6 C6          0.2537   -0.4668    0.0427 C.ar      1 <0>         0.1524
      7 N1         -0.8887   -1.2744    0.0324 N.pl3     1 <0>        -0.5762
      8 C7         -1.2793   -1.9911   -1.1874 C.3       1 <0>         0.1748
      9 C8         -2.7621   -1.8386   -1.4106 C.ar      1 <0>        -0.0910
     10 C9         -3.2808   -1.8738   -2.6873 C.ar      1 <0>        -0.1304
     11 C10        -4.6483   -1.7385   -2.8853 C.ar      1 <0>         0.1094
     12 C11        -5.4987   -1.5694   -1.8009 C.ar      1 <0>        -0.1346
     13 C12        -4.9866   -1.5307   -0.5202 C.ar      1 <0>        -0.0907
     14 C13        -3.6153   -1.6617   -0.3196 C.ar      1 <0>        -0.0322
     15 C14        -3.0396   -1.6048    1.0452 C.ar      1 <0>        -0.1021
     16 C15        -1.6632   -1.4113    1.1801 C.ar      1 <0>         0.2139
     17 C16        -1.0890   -1.3552    2.4624 C.ar      1 <0>        -0.0839
     18 C17         0.2900   -1.1538    2.6369 C.ar      1 <0>        -0.0926
     19 C18         0.8128   -1.1062    3.8920 C.ar      1 <0>        -0.1482
     20 C19        -0.0051   -1.2555    5.0159 C.ar      1 <0>         0.1185
     21 C20        -1.3506   -1.4515    4.8823 C.ar      1 <0>        -0.1388
     22 C21        -1.9223   -1.5051    3.6008 C.ar      1 <0>        -0.0035
     23 C22        -3.3050   -1.7037    3.4318 C.ar      1 <0>        -0.1388
     24 C23        -3.8494   -1.7456    2.1782 C.ar      1 <0>        -0.0623
     25 O1          0.5451   -1.2047    6.2572 O.3       1 <0>        -0.4990
     26 O2         -5.1564   -1.7723   -4.1453 O.3       1 <0>        -0.4976
     27 O3          3.6250    1.9166    0.0735 O.3       1 <0>        -0.3269
     28 C24         4.8552    1.3054   -0.3203 C.3       1 <0>         0.0252
     29 C25         5.9834    2.3362   -0.2464 C.3       1 <0>        -0.0011
     30 N2          6.1631    2.7665    1.1466 N.4       1 <0>        -0.3840
     31 C26         7.1350    3.8653    1.1962 C.3       1 <0>        -0.0071
     32 C27         7.2654    4.3714    2.6344 C.3       1 <0>        -0.1467
     33 C28         7.7417    3.2256    3.5318 C.3       1 <0>        -0.1390
     34 C29         6.7595    2.0565    3.4148 C.3       1 <0>        -0.1453
     35 C30         6.6478    1.6362    1.9477 C.3       1 <0>        -0.0133
     36 H1         -0.7950    1.2773    0.7171 H         1 <0>         0.1368
     37 H2          1.2146    2.6975    0.7312 H         1 <0>         0.1376
     38 H3          3.5653   -0.6103   -0.6076 H         1 <0>         0.1327
     39 H4          1.5569   -2.0323   -0.6259 H         1 <0>         0.1364
     40 H5         -0.7396   -1.5780   -2.0396 H         1 <0>         0.0949
     41 H6         -1.0350   -3.0480   -1.0814 H         1 <0>         0.0788
     42 H7         -2.6233   -2.0062   -3.5338 H         1 <0>         0.1327
     43 H8         -6.5621   -1.4676   -1.9600 H         1 <0>         0.1350
     44 H9         -5.6474   -1.3989    0.3238 H         1 <0>         0.1339
     45 H10         0.9334   -1.0373    1.7773 H         1 <0>         0.1393
     46 H11         1.8738   -0.9514    4.0218 H         1 <0>         0.1235
     47 H12        -1.9718   -1.5647    5.7584 H         1 <0>         0.1377
     48 H13        -3.9412   -1.8182    4.2970 H         1 <0>         0.1332
     49 H14        -4.9118   -1.8989    2.0592 H         1 <0>         0.1326
     50 H15         0.5747   -0.3164    6.6383 H         1 <0>         0.3920
     51 H16        -5.3991   -2.6581   -4.4479 H         1 <0>         0.3944
     52 H17         5.0783    0.4740    0.3484 H         1 <0>         0.0864
     53 H18         4.7668    0.9362   -1.3421 H         1 <0>         0.1095
     54 H19         6.9084    1.8892   -0.6108 H         1 <0>         0.1489
     55 H20         5.7289    3.1982   -0.8631 H         1 <0>         0.1427
     56 H21         8.1043    3.5084    0.8478 H         1 <0>         0.1291
     57 H22         6.7963    4.6787    0.5546 H         1 <0>         0.1310
     58 H23         7.9888    5.1860    2.6694 H         1 <0>         0.1130
     59 H24         6.2967    4.7288    2.9837 H         1 <0>         0.0880
     60 H25         8.7330    2.9019    3.2145 H         1 <0>         0.0821
     61 H26         7.7819    3.5656    4.5666 H         1 <0>         0.0947
     62 H27         7.1212    1.2164    4.0076 H         1 <0>         0.1124
     63 H28         5.7803    2.3658    3.7803 H         1 <0>         0.0879
     64 H29         5.9494    0.8038    1.8608 H         1 <0>         0.1274
     65 H30         7.6274    1.3268    1.5833 H         1 <0>         0.1302
     66 H31         5.2796    3.0848    1.5158 H         1 <0>         0.4294
@<TRIPOS>BOND
     1    1    6 ar
     2    1    2 ar
     3    1   36 1
     4    2    3 ar
     5    2   37 1
     6    3    4 ar
     7    3   27 1
     8    4    5 ar
     9    4   38 1
    10    5    6 ar
    11    5   39 1
    12    6    7 1
    13    7   16 1
    14    7    8 1
    15    8    9 1
    16    8   40 1
    17    8   41 1
    18    9   14 ar
    19    9   10 ar
    20   10   11 ar
    21   10   42 1
    22   11   12 ar
    23   11   26 1
    24   12   13 ar
    25   12   43 1
    26   13   14 ar
    27   13   44 1
    28   14   15 1
    29   15   24 ar
    30   15   16 ar
    31   16   17 ar
    32   17   22 ar
    33   17   18 ar
    34   18   19 ar
    35   18   45 1
    36   19   20 ar
    37   19   46 1
    38   20   21 ar
    39   20   25 1
    40   21   22 ar
    41   21   47 1
    42   22   23 ar
    43   23   24 ar
    44   23   48 1
    45   24   49 1
    46   25   50 1
    47   26   51 1
    48   27   28 1
    49   28   29 1
    50   28   52 1
    51   28   53 1
    52   29   30 1
    53   29   54 1
    54   29   55 1
    55   30   35 1
    56   30   31 1
    57   30   66 1
    58   31   32 1
    59   31   56 1
    60   31   57 1
    61   32   33 1
    62   32   58 1
    63   32   59 1
    64   33   34 1
    65   33   60 1
    66   33   61 1
    67   34   35 1
    68   34   62 1
    69   34   63 1
    70   35   64 1
    71   35   65 1
