@<TRIPOS>MOLECULE
CHEMBL211800
   42    46     0     0     0
SMALL
USER_CHARGES

@<TRIPOS>ATOM
      1 C1          0.2172    1.5353    0.4077 C.ar      1 <0>        -0.0382
      2 C2          1.3280    2.2697    0.6213 C.ar      1 <0>        -0.1096
      3 C3          2.5821    1.6317    0.7637 C.ar      1 <0>         0.1275
      4 C4          2.6406    0.1621    0.7025 C.ar      1 <0>        -0.2064
      5 C5          3.9728   -0.1824    0.8724 C.2       1 <0>         0.1058
      6 N1          4.6724    0.9489    1.0223 N.pl3     1 <0>        -0.4200
      7 N2          3.8168    2.0539    0.9542 N.2       1 <0>        -0.3024
      8 H1          5.6316    0.9957    1.1585 H         1 <0>         0.4478
      9 C6          1.4531   -0.5624    0.5014 C.ar      1 <0>         0.0347
     10 C7          0.2575    0.1212    0.3134 C.ar      1 <0>        -0.1412
     11 C8         -0.7978   -0.8405   -0.0162 C.2       1 <0>         0.0748
     12 C9         -1.9541   -0.6547   -0.6904 C.2       1 <0>        -0.2177
     13 C10        -2.7670   -1.7744   -0.9656 C.2       1 <0>         0.3961
     14 O1         -3.8112   -1.6209   -1.5673 O.2       1 <0>        -0.4470
     15 C11        -2.3627   -3.1553   -0.5261 C.3       1 <0>        -0.1597
     16 C12        -0.8375   -3.2642   -0.4223 C.3       1 <0>        -0.1102
     17 C13        -0.3412   -2.1811    0.5391 C.3       1 <0>        -0.0356
     18 C14         1.1910   -2.0549    0.4812 C.3       1 <0>        -0.0820
     19 C15        -0.8571   -2.4122    1.9608 C.3       1 <0>        -0.0962
     20 C16        -0.4145   -3.7941    2.4457 C.3       1 <0>        -0.0887
     21 C17        -0.8192   -3.9746    3.9101 C.3       1 <0>        -0.1548
     22 C18         0.3021   -4.1452    4.9371 C.3       1 <0>        -0.1808
     23 C19        -0.5685   -5.3420    4.5490 C.3       1 <0>        -0.1807
     24 Br1        -2.4731    1.0741   -1.2541 Br        1 <0>        -0.0261
     25 H2         -0.7329    2.0395    0.3099 H         1 <0>         0.1356
     26 H3          1.2598    3.3457    0.6832 H         1 <0>         0.1362
     27 H4          4.3744   -1.1849    0.8825 H         1 <0>         0.1931
     28 H5         -2.8050   -3.3664    0.4475 H         1 <0>         0.1069
     29 H6         -2.7263   -3.8838   -1.2508 H         1 <0>         0.1027
     30 H7         -0.5647   -4.2478   -0.0397 H         1 <0>         0.0914
     31 H8         -0.3909   -3.1152   -1.4054 H         1 <0>         0.0780
     32 H9          1.5744   -2.4957   -0.4391 H         1 <0>         0.0993
     33 H10         1.6445   -2.5322    1.3499 H         1 <0>         0.0977
     34 H11        -0.4514   -1.6475    2.6233 H         1 <0>         0.0765
     35 H12        -1.9457   -2.3568    1.9658 H         1 <0>         0.0744
     36 H13        -0.8934   -4.5627    1.8390 H         1 <0>         0.0732
     37 H14         0.6682   -3.8816    2.3546 H         1 <0>         0.0686
     38 H15        -1.7094   -3.4287    4.2225 H         1 <0>         0.1044
     39 H16         1.3280   -4.1289    4.5694 H         1 <0>         0.0930
     40 H17         0.1497   -3.7114    5.9254 H         1 <0>         0.0921
     41 H18        -1.2937   -5.6956    5.2820 H         1 <0>         0.0934
     42 H19        -0.1153   -6.1131    3.9260 H         1 <0>         0.0941
@<TRIPOS>BOND
     1    1   10 ar
     2    1    2 ar
     3    1   25 1
     4    2    3 ar
     5    2   26 1
     6    3    4 ar
     7    3    7 2
     8    4    9 ar
     9    4    5 2
    10    5   27 1
    11    5    6 1
    12    6    8 1
    13    6    7 1
    14    9   18 1
    15    9   10 ar
    16   10   11 1
    17   11   17 1
    18   11   12 2
    19   12   13 1
    20   12   24 1
    21   13   14 2
    22   13   15 1
    23   15   16 1
    24   15   28 1
    25   15   29 1
    26   16   17 1
    27   16   30 1
    28   16   31 1
    29   17   18 1
    30   17   19 1
    31   18   32 1
    32   18   33 1
    33   19   20 1
    34   19   34 1
    35   19   35 1
    36   20   21 1
    37   20   36 1
    38   20   37 1
    39   21   23 1
    40   21   22 1
    41   21   38 1
    42   22   23 1
    43   22   39 1
    44   22   40 1
    45   23   41 1
    46   23   42 1
