@<TRIPOS>MOLECULE
CHEMBL145576
   46    50     0     0     0
SMALL
USER_CHARGES

@<TRIPOS>ATOM
      1 C1         -0.0184    1.5028    0.0103 C.3       1 <0>        -0.1066
      2 C2          0.0021   -0.0041    0.0020 C.2       1 <0>        -0.0697
      3 C3         -1.0926   -0.7818    0.0030 C.2       1 <0>        -0.0733
      4 C4         -0.6328   -2.2101   -0.0077 C.3       1 <0>         0.0179
      5 C5         -1.1811   -2.9925    1.1918 C.3       1 <0>        -0.0596
      6 C6         -2.4333   -3.6730    0.6760 C.ar      1 <0>        -0.0923
      7 C7         -3.4860   -4.2538    1.3626 C.ar      1 <0>        -0.1049
      8 C8         -4.5375   -4.8223    0.6706 C.ar      1 <0>        -0.1176
      9 C9         -4.5396   -4.8125   -0.7119 C.ar      1 <0>        -0.1170
     10 C10        -3.4903   -4.2342   -1.3988 C.ar      1 <0>        -0.1040
     11 C11        -2.4357   -3.6630   -0.7069 C.ar      1 <0>        -0.0900
     12 C12        -1.1858   -2.9744   -1.2172 C.3       1 <0>        -0.0574
     13 C13         0.8670   -2.1786   -0.0125 C.ar      1 <0>        -0.0925
     14 C14         1.2246   -0.8236   -0.0146 C.ar      1 <0>        -0.0460
     15 C15         2.5781   -0.4754   -0.0281 C.ar      1 <0>        -0.1228
     16 C16         3.5453   -1.4651   -0.0414 C.ar      1 <0>         0.1090
     17 C17         3.1758   -2.8034   -0.0412 C.ar      1 <0>        -0.1383
     18 C18         1.8370   -3.1540   -0.0197 C.ar      1 <0>        -0.0780
     19 O1          4.8612   -1.1258   -0.0552 O.3       1 <0>        -0.4977
     20 C19        -2.4908   -0.3172    0.0134 C.ar      1 <0>        -0.0310
     21 C20        -3.3096   -0.5826    1.1148 C.ar      1 <0>        -0.0799
     22 C21        -4.6165   -0.1461    1.1200 C.ar      1 <0>        -0.1418
     23 C22        -5.1208    0.5562    0.0329 C.ar      1 <0>         0.1089
     24 C23        -4.3110    0.8224   -1.0638 C.ar      1 <0>        -0.1436
     25 C24        -3.0010    0.3954   -1.0755 C.ar      1 <0>        -0.0867
     26 O2         -6.4103    0.9838    0.0421 O.3       1 <0>        -0.4997
     27 H1          1.0042    1.8801    0.0026 H         1 <0>         0.0660
     28 H2         -0.5455    1.8639   -0.8728 H         1 <0>         0.0726
     29 H3         -0.5286    1.8543    0.9071 H         1 <0>         0.0724
     30 H4         -0.4555   -3.7352    1.5234 H         1 <0>         0.0873
     31 H5         -1.4279   -2.3124    2.0070 H         1 <0>         0.0805
     32 H6         -3.4852   -4.2621    2.4426 H         1 <0>         0.1185
     33 H7         -5.3573   -5.2744    1.2091 H         1 <0>         0.1229
     34 H8         -5.3610   -5.2571   -1.2542 H         1 <0>         0.1228
     35 H9         -3.4923   -4.2274   -2.4788 H         1 <0>         0.1184
     36 H10        -1.4360   -2.2819   -2.0209 H         1 <0>         0.0803
     37 H11        -0.4613   -3.7117   -1.5630 H         1 <0>         0.0868
     38 H12         2.8688    0.5647   -0.0286 H         1 <0>         0.1295
     39 H13         3.9343   -3.5721   -0.0510 H         1 <0>         0.1340
     40 H14         1.5530   -4.1960   -0.0210 H         1 <0>         0.1287
     41 H15         5.2519   -1.0299    0.8242 H         1 <0>         0.3922
     42 H16        -2.9185   -1.1292    1.9602 H         1 <0>         0.1258
     43 H17        -5.2499   -0.3507    1.9705 H         1 <0>         0.1288
     44 H18        -4.7075    1.3689   -1.9068 H         1 <0>         0.1297
     45 H19        -2.3707    0.6070   -1.9266 H         1 <0>         0.1262
     46 H20        -6.5291    1.8671    0.4174 H         1 <0>         0.3911
@<TRIPOS>BOND
     1    1    2 1
     2    1   27 1
     3    1   28 1
     4    1   29 1
     5    2   14 1
     6    2    3 2
     7    3    4 1
     8    3   20 1
     9    4   12 1
    10    4    5 1
    11    4   13 1
    12    5    6 1
    13    5   30 1
    14    5   31 1
    15    6   11 ar
    16    6    7 ar
    17    7    8 ar
    18    7   32 1
    19    8    9 ar
    20    8   33 1
    21    9   10 ar
    22    9   34 1
    23   10   11 ar
    24   10   35 1
    25   11   12 1
    26   12   36 1
    27   12   37 1
    28   13   18 ar
    29   13   14 ar
    30   14   15 ar
    31   15   16 ar
    32   15   38 1
    33   16   17 ar
    34   16   19 1
    35   17   18 ar
    36   17   39 1
    37   18   40 1
    38   19   41 1
    39   20   25 ar
    40   20   21 ar
    41   21   22 ar
    42   21   42 1
    43   22   23 ar
    44   22   43 1
    45   23   24 ar
    46   23   26 1
    47   24   25 ar
    48   24   44 1
    49   25   45 1
    50   26   46 1
