@<TRIPOS>MOLECULE
CHEMBL19687
   63    65     0     0     0
SMALL
USER_CHARGES

@<TRIPOS>ATOM
      1 C1         -0.1603    7.8081    4.9492 C.3       1 <0>         0.0694
      2 N1         -0.1615    7.3411    3.5606 N.pl3     1 <0>        -0.4015
      3 C2         -0.2909    8.1281    2.4607 C.2       1 <0>        -0.0086
      4 C3         -0.2455    7.3422    1.3529 C.2       1 <0>         0.0527
      5 C4         -0.0818    6.0155    1.7765 C.2       1 <0>        -0.1339
      6 C5         -0.0259    6.0335    3.1542 C.2       1 <0>        -0.0483
      7 C6          0.1439    4.8686    4.0288 C.2       1 <0>         0.5987
      8 O1          0.0870    5.0015    5.2374 O.2       1 <0>        -0.5366
      9 N2          0.3630    3.6509    3.4943 N.am      1 <0>        -0.6350
     10 C7          0.4151    2.5172    4.3253 C.2       1 <0>         0.0662
     11 C8          0.2514    2.5046    5.7179 C.2       1 <0>        -0.1311
     12 C9          0.3769    1.1944    6.1294 C.2       1 <0>        -0.0510
     13 N3          0.6117    0.4263    5.0121 N.pl3     1 <0>        -0.4016
     14 C10         0.6273    1.2368    3.9215 C.2       1 <0>        -0.0038
     15 C11         0.8071   -1.0255    4.9997 C.3       1 <0>         0.0683
     16 C12         0.2782    0.7074    7.5092 C.2       1 <0>         0.6029
     17 O2          0.3138   -0.4879    7.7368 O.2       1 <0>        -0.5424
     18 N4          0.1482    1.5833    8.5252 N.am      1 <0>        -0.6350
     19 C13         0.1651    1.1253    9.8551 C.2       1 <0>         0.0657
     20 C14         0.3152   -0.2060   10.2691 C.2       1 <0>        -0.1297
     21 C15         0.2753   -0.2091   11.6476 C.2       1 <0>        -0.0606
     22 N5          0.1047    1.0915   12.0634 N.pl3     1 <0>        -0.3989
     23 C16         0.0448    1.8946   10.9692 C.2       1 <0>         0.0017
     24 C17         0.0092    1.5371   13.4557 C.3       1 <0>         0.0616
     25 C18         0.3926   -1.3865   12.5141 C.2       1 <0>         0.6043
     26 O3          0.2512   -1.2728   13.7175 O.2       1 <0>        -0.5386
     27 N6          0.6570   -2.5943   11.9778 N.am      1 <0>        -0.7266
     28 C19         0.6652   -3.7874   12.8279 C.3       1 <0>         0.1260
     29 C20         0.9901   -5.0172   11.9777 C.3       1 <0>        -0.1445
     30 C21         0.9985   -6.2445   12.8522 C.cat     1 <0>         0.5532
     31 N7          2.1180   -6.6293   13.4403 N.pl3     1 <0>        -0.7510
     32 N8         -0.1135   -6.9361   13.0312 N.pl3     1 <0>        -0.7508
     33 N9         -0.3454    7.7810    0.0198 N.am      1 <0>        -0.6546
     34 C22        -0.2845    6.8898   -0.9894 C.2       1 <0>         0.4924
     35 O4         -0.1436    5.7093   -0.7485 O.2       1 <0>        -0.5409
     36 H1          0.8672    7.9545    5.2824 H         1 <0>         0.0779
     37 H2         -0.7017    8.7518    5.0156 H         1 <0>         0.0857
     38 H3         -0.6454    7.0656    5.5827 H         1 <0>         0.1024
     39 H4         -0.4105    9.2015    2.4659 H         1 <0>         0.1742
     40 H5         -0.0089    5.1440    1.1427 H         1 <0>         0.1688
     41 H6          0.4847    3.5563    2.5367 H         1 <0>         0.4161
     42 H7          0.0631    3.3602    6.3495 H         1 <0>         0.1694
     43 H8          0.7850    0.9167    2.9022 H         1 <0>         0.1768
     44 H9         -0.1430   -1.5182    4.7927 H         1 <0>         0.0776
     45 H10         1.5288   -1.2884    4.2263 H         1 <0>         0.0839
     46 H11         1.1807   -1.3502    5.9708 H         1 <0>         0.1041
     47 H12         0.0429    2.5295    8.3395 H         1 <0>         0.4172
     48 H13         0.4388   -1.0670    9.6289 H         1 <0>         0.1689
     49 H14        -0.0803    2.9672   10.9823 H         1 <0>         0.1781
     50 H15         0.9928    1.8513   13.8049 H         1 <0>         0.0795
     51 H16        -0.6847    2.3751   13.5223 H         1 <0>         0.0878
     52 H17        -0.3515    0.7166   14.0759 H         1 <0>         0.1080
     53 H18         0.8419   -2.6736   11.0289 H         1 <0>         0.4126
     54 H19         1.4199   -3.6739   13.6061 H         1 <0>         0.0860
     55 H20        -0.3151   -3.9124   13.2880 H         1 <0>         0.0849
     56 H21         0.2354   -5.1307   11.1996 H         1 <0>         0.1391
     57 H22         1.9704   -4.8922   11.5177 H         1 <0>         0.1387
     58 H23         2.9341   -6.1217   13.3090 H         1 <0>         0.4500
     59 H24        -0.9350   -6.6537   12.5996 H         1 <0>         0.4501
     60 H25        -0.1081   -7.7260   13.5941 H         1 <0>         0.4329
     61 H26        -0.4581    8.7250   -0.1730 H         1 <0>         0.4128
     62 H27        -0.3612    7.2267   -2.0127 H         1 <0>         0.1456
     63 H28         2.1234   -7.4192   14.0032 H         1 <0>         0.4329
@<TRIPOS>BOND
     1    1    2 1
     2    1   36 1
     3    1   37 1
     4    1   38 1
     5    2    6 1
     6    2    3 1
     7    3    4 2
     8    3   39 1
     9    4    5 1
    10    4   33 1
    11    5    6 2
    12    5   40 1
    13    6    7 1
    14    7    8 2
    15    7    9 am
    16    9   10 1
    17    9   41 1
    18   10   14 2
    19   10   11 1
    20   11   12 2
    21   11   42 1
    22   12   13 1
    23   12   16 1
    24   13   14 1
    25   13   15 1
    26   14   43 1
    27   15   44 1
    28   15   45 1
    29   15   46 1
    30   16   17 2
    31   16   18 am
    32   18   19 1
    33   18   47 1
    34   19   23 2
    35   19   20 1
    36   20   21 2
    37   20   48 1
    38   21   22 1
    39   21   25 1
    40   22   23 1
    41   22   24 1
    42   23   49 1
    43   24   50 1
    44   24   51 1
    45   24   52 1
    46   25   26 2
    47   25   27 am
    48   27   28 1
    49   27   53 1
    50   28   29 1
    51   28   54 1
    52   28   55 1
    53   29   30 1
    54   29   56 1
    55   29   57 1
    56   30   31 2
    57   30   32 1
    58   31   58 1
    59   31   63 1
    60   32   59 1
    61   32   60 1
    62   33   34 am
    63   33   61 1
    64   34   35 2
    65   34   62 1
