@<TRIPOS>MOLECULE
CHEMBL184202
   61    66     0     0     0
SMALL
USER_CHARGES

@<TRIPOS>ATOM
      1 C1          1.1631   -0.6117   -0.4390 C.ar      1 <0>        -0.0872
      2 C2          2.3518    0.0921   -0.4484 C.ar      1 <0>        -0.1389
      3 C3          2.3800    1.4096   -0.0147 C.ar      1 <0>         0.1157
      4 C4          1.2137    2.0170    0.4273 C.ar      1 <0>        -0.1461
      5 C5          0.0275    1.3089    0.4346 C.ar      1 <0>        -0.0837
      6 C6          0.0021   -0.0041    0.0020 C.ar      1 <0>        -0.0896
      7 C7         -1.2934   -0.7740    0.0107 C.3       1 <0>        -0.0642
      8 H1         -2.1334   -0.0869    0.1120 H         1 <0>         0.1382
      9 C8         -1.2969   -1.7821    1.1721 C.3       1 <0>         0.1495
     10 H2         -2.1779   -2.4197    1.0986 H         1 <0>         0.0961
     11 O1         -0.1255   -2.5802    1.0967 O.3       1 <0>        -0.3050
     12 C9          0.1551   -3.3416    0.0132 C.ar      1 <0>         0.1210
     13 C10         0.9986   -4.4351    0.1946 C.ar      1 <0>        -0.1140
     14 C11         1.3394   -5.2447   -0.8692 C.ar      1 <0>        -0.1062
     15 C12         0.8443   -4.9772   -2.1372 C.ar      1 <0>         0.0986
     16 C13        -0.0005   -3.8960   -2.3286 C.ar      1 <0>        -0.0901
     17 C14        -0.3494   -3.0850   -1.2568 C.ar      1 <0>        -0.1476
     18 S1         -1.4568   -1.7323   -1.5285 S.3       1 <0>        -0.0841
     19 O2          1.1866   -5.7716   -3.1864 O.3       1 <0>        -0.4915
     20 C15        -1.3198   -1.0400    2.4835 C.ar      1 <0>        -0.1043
     21 C16        -0.1522   -0.5024    2.9927 C.ar      1 <0>        -0.0349
     22 C17        -0.1704    0.1779    4.1949 C.ar      1 <0>        -0.1422
     23 C18        -1.3617    0.3218    4.8912 C.ar      1 <0>         0.1222
     24 C19        -2.5320   -0.2182    4.3779 C.ar      1 <0>        -0.2028
     25 C20        -2.5094   -0.8931    3.1727 C.ar      1 <0>        -0.0589
     26 O3         -1.3822    0.9902    6.0743 O.3       1 <0>        -0.3245
     27 C21        -2.6441    1.0995    6.7359 C.3       1 <0>         0.0282
     28 C22        -2.4698    1.8785    8.0411 C.3       1 <0>         0.0038
     29 N1         -2.0692    3.2589    7.7377 N.4       1 <0>        -0.3976
     30 C23        -0.6794    3.2934    7.2138 C.3       1 <0>         0.0282
     31 C24        -0.2024    4.7389    7.4714 C.3       1 <0>        -0.1848
     32 C25         0.4280    5.0594    8.8281 C.3       1 <0>        -0.1135
     33 C26        -1.0779    5.2486    8.6347 C.3       1 <0>        -0.1878
     34 C27        -2.0103    4.0683    8.9821 C.3       1 <0>         0.0216
     35 O4          3.5482    2.1039   -0.0225 O.3       1 <0>        -0.4999
     36 H3          1.1398   -1.6359   -0.7807 H         1 <0>         0.1322
     37 H4          3.2585   -0.3831   -0.7926 H         1 <0>         0.1314
     38 H5          1.2331    3.0424    0.7657 H         1 <0>         0.1293
     39 H6         -0.8807    1.7813    0.7787 H         1 <0>         0.1235
     40 H7          1.3899   -4.6512    1.1778 H         1 <0>         0.1413
     41 H8          1.9942   -6.0894   -0.7144 H         1 <0>         0.1429
     42 H9         -0.3883   -3.6831   -3.3139 H         1 <0>         0.1405
     43 H10         0.5878   -6.5179   -3.3264 H         1 <0>         0.3946
     44 H11         0.7750   -0.6147    2.4504 H         1 <0>         0.1385
     45 H12         0.7420    0.5970    4.5927 H         1 <0>         0.1347
     46 H13        -3.4607   -0.1075    4.9180 H         1 <0>         0.1314
     47 H14        -3.4210   -1.3098    2.7705 H         1 <0>         0.1344
     48 H15        -3.3483    1.6246    6.0906 H         1 <0>         0.0866
     49 H16        -3.0265    0.1028    6.9560 H         1 <0>         0.1108
     50 H17        -3.4123    1.8857    8.5886 H         1 <0>         0.1512
     51 H18        -1.7003    1.4021    8.6486 H         1 <0>         0.1407
     52 H19        -0.0520    2.5841    7.7535 H         1 <0>         0.1355
     53 H20        -0.6702    3.0746    6.1460 H         1 <0>         0.1441
     54 H21         0.0178    5.3603    6.6034 H         1 <0>         0.1479
     55 H22         0.7541    4.2195    9.4416 H         1 <0>         0.1100
     56 H23         1.0424    5.9571    8.8971 H         1 <0>         0.1274
     57 H24        -1.4978    6.2545    8.6392 H         1 <0>         0.1493
     58 H25        -3.0031    4.4329    9.2457 H         1 <0>         0.1401
     59 H26        -1.5911    3.4803    9.7986 H         1 <0>         0.1358
     60 H27         3.7178    2.5792   -0.8474 H         1 <0>         0.3955
     61 H28        -2.7079    3.6745    7.0763 H         1 <0>         0.4269
@<TRIPOS>BOND
     1    1    6 ar
     2    1    2 ar
     3    1   36 1
     4    2    3 ar
     5    2   37 1
     6    3    4 ar
     7    3   35 1
     8    4    5 ar
     9    4   38 1
    10    5    6 ar
    11    5   39 1
    12    6    7 1
    13    7    8 1
    14    7   18 1
    15    7    9 1
    16    9   10 1
    17    9   11 1
    18    9   20 1
    19   11   12 1
    20   12   17 ar
    21   12   13 ar
    22   13   14 ar
    23   13   40 1
    24   14   15 ar
    25   14   41 1
    26   15   16 ar
    27   15   19 1
    28   16   17 ar
    29   16   42 1
    30   17   18 1
    31   19   43 1
    32   20   25 ar
    33   20   21 ar
    34   21   22 ar
    35   21   44 1
    36   22   23 ar
    37   22   45 1
    38   23   24 ar
    39   23   26 1
    40   24   25 ar
    41   24   46 1
    42   25   47 1
    43   26   27 1
    44   27   28 1
    45   27   48 1
    46   27   49 1
    47   28   29 1
    48   28   50 1
    49   28   51 1
    50   29   34 1
    51   29   30 1
    52   29   61 1
    53   30   31 1
    54   30   52 1
    55   30   53 1
    56   31   33 1
    57   31   32 1
    58   31   54 1
    59   32   33 1
    60   32   55 1
    61   32   56 1
    62   33   34 1
    63   33   57 1
    64   34   58 1
    65   34   59 1
    66   35   60 1
