@<TRIPOS>MOLECULE
CHEMBL240230
   85    89     0     0     0
SMALL
USER_CHARGES

@<TRIPOS>ATOM
      1 C1         -0.0187    1.5258    0.0104 C.3       1 <0>        -0.1655
      2 C2          0.0021   -0.0041    0.0020 C.3       1 <0>         0.1424
      3 H1          0.5123   -0.3556   -0.8948 H         1 <0>         0.0890
      4 C3         -1.4333   -0.5336    0.0129 C.3       1 <0>        -0.1222
      5 C4         -1.4157   -2.0577   -0.1212 C.3       1 <0>        -0.0781
      6 C5         -2.8295   -2.5793   -0.1105 C.ar      1 <0>        -0.0926
      7 C6         -3.4314   -2.9172    1.0875 C.ar      1 <0>        -0.1007
      8 C7         -4.7271   -3.3960    1.1000 C.ar      1 <0>        -0.1427
      9 C8         -5.4247   -3.5373   -0.0909 C.ar      1 <0>         0.1013
     10 C9         -4.8186   -3.1971   -1.2916 C.ar      1 <0>        -0.1425
     11 C10        -3.5245   -2.7138   -1.2982 C.ar      1 <0>        -0.1007
     12 O1         -6.6993   -4.0085   -0.0813 O.3       1 <0>        -0.5007
     13 N1          0.7106   -0.4894    1.1889 N.am      1 <0>        -0.7291
     14 C11         2.0538   -0.5998    1.1737 C.2       1 <0>         0.5131
     15 O2          2.6758   -0.2974    0.1774 O.2       1 <0>        -0.5245
     16 C12         2.7826   -1.0990    2.3946 C.3       1 <0>        -0.0695
     17 C13         4.2638   -1.1281    2.1185 C.2       1 <0>        -0.1410
     18 C14         5.0227   -2.2455    1.5590 C.ar      1 <0>        -0.0477
     19 C15         4.6771   -3.5319    1.1332 C.ar      1 <0>        -0.1031
     20 C16         5.6542   -4.3722    0.6397 C.ar      1 <0>         0.0966
     21 C17         6.9773   -3.9434    0.5656 C.ar      1 <0>        -0.1801
     22 C18         7.3297   -2.6790    0.9823 C.ar      1 <0>        -0.0868
     23 C19         6.3607   -1.8157    1.4825 C.ar      1 <0>         0.0784
     24 N2          6.4067   -0.5238    1.9641 N.pl3     1 <0>        -0.5858
     25 H2          7.2073    0.0202    2.0265 H         1 <0>         0.4177
     26 C20         5.1452   -0.1207    2.3362 C.2       1 <0>         0.1542
     27 C21         4.8033    1.2064    2.8922 C.ar      1 <0>        -0.0453
     28 C22         3.6787    1.8911    2.4299 C.ar      1 <0>        -0.0926
     29 C23         3.3649    3.1286    2.9530 C.ar      1 <0>        -0.1170
     30 C24         4.1625    3.6907    3.9339 C.ar      1 <0>        -0.1060
     31 C25         5.2791    3.0172    4.3962 C.ar      1 <0>        -0.1174
     32 C26         5.6006    1.7766    3.8855 C.ar      1 <0>        -0.1042
     33 O3          5.3240   -5.6244    0.2246 O.3       1 <0>        -0.3158
     34 C27         6.3836   -6.4427   -0.2752 C.3       1 <0>         0.0609
     35 C28         5.8236   -7.8046   -0.6907 C.3       1 <0>        -0.1178
     36 C29         6.9580   -8.6807   -1.2259 C.3       1 <0>        -0.1463
     37 C30         6.3981  -10.0425   -1.6414 C.3       1 <0>        -0.0087
     38 N3          7.4873  -10.8837   -2.1553 N.4       1 <0>        -0.3830
     39 C31         8.0280  -10.2861   -3.3820 C.3       1 <0>        -0.0128
     40 C32         9.2156  -11.1144   -3.8769 C.3       1 <0>        -0.1460
     41 C33         8.7487  -12.5439   -4.1664 C.3       1 <0>        -0.1398
     42 C34         8.1190  -13.1311   -2.9000 C.3       1 <0>        -0.1465
     43 C35         6.9720  -12.2280   -2.4413 C.3       1 <0>        -0.0068
     44 H3          1.0039    1.9031    0.0027 H         1 <0>         0.0607
     45 H4         -0.5459    1.8868   -0.8726 H         1 <0>         0.0664
     46 H5         -0.5289    1.8773    0.9072 H         1 <0>         0.0583
     47 H6         -1.9156   -0.2570    0.9504 H         1 <0>         0.0719
     48 H7         -1.9862   -0.1019   -0.8214 H         1 <0>         0.0816
     49 H8         -0.9334   -2.3344   -1.0587 H         1 <0>         0.0733
     50 H9         -0.8628   -2.4894    0.7131 H         1 <0>         0.0734
     51 H10        -2.8879   -2.8071    2.0143 H         1 <0>         0.1255
     52 H11        -5.1966   -3.6605    2.0359 H         1 <0>         0.1287
     53 H12        -5.3596   -3.3061   -2.2200 H         1 <0>         0.1286
     54 H13        -3.0538   -2.4447   -2.2322 H         1 <0>         0.1259
     55 H14        -7.3727   -3.3195    0.0019 H         1 <0>         0.3925
     56 H15         0.2131   -0.7312    1.9857 H         1 <0>         0.3995
     57 H16         2.5826   -0.4337    3.2345 H         1 <0>         0.1018
     58 H17         2.4385   -2.1044    2.6374 H         1 <0>         0.1018
     59 H18         3.6516   -3.8658    1.1905 H         1 <0>         0.1283
     60 H19         7.7343   -4.6090    0.1778 H         1 <0>         0.1272
     61 H20         8.3590   -2.3577    0.9207 H         1 <0>         0.1255
     62 H21         3.0555    1.4535    1.6640 H         1 <0>         0.1311
     63 H22         2.4950    3.6598    2.5959 H         1 <0>         0.1277
     64 H23         3.9125    4.6597    4.3402 H         1 <0>         0.1273
     65 H24         5.8978    3.4616    5.1618 H         1 <0>         0.1282
     66 H25         6.4700    1.2498    4.2503 H         1 <0>         0.1222
     67 H26         6.8400   -5.9587   -1.1387 H         1 <0>         0.0625
     68 H27         7.1342   -6.5806    0.5030 H         1 <0>         0.0630
     69 H28         5.3672   -8.2885    0.1727 H         1 <0>         0.0863
     70 H29         5.0730   -7.6667   -1.4689 H         1 <0>         0.0859
     71 H30         7.4145   -8.1967   -2.0894 H         1 <0>         0.0902
     72 H31         7.7087   -8.8186   -0.4477 H         1 <0>         0.0904
     73 H32         5.9417  -10.5265   -0.7780 H         1 <0>         0.1334
     74 H33         5.6474   -9.9047   -2.4196 H         1 <0>         0.1316
     75 H34         7.2535  -10.2681   -4.1488 H         1 <0>         0.1288
     76 H35         8.3569   -9.2677   -3.1751 H         1 <0>         0.1310
     77 H36         9.6145  -10.6701   -4.7888 H         1 <0>         0.1117
     78 H37         9.9909  -11.1329   -3.1109 H         1 <0>         0.0872
     79 H38         8.0103  -12.5308   -4.9682 H         1 <0>         0.0818
     80 H39         9.6020  -13.1526   -4.4652 H         1 <0>         0.0941
     81 H40         7.7341  -14.1283   -3.1136 H         1 <0>         0.1122
     82 H41         8.8715  -13.1914   -2.1137 H         1 <0>         0.0874
     83 H42         6.5214  -12.6434   -1.5399 H         1 <0>         0.1303
     84 H43         6.2201  -12.1686   -3.2281 H         1 <0>         0.1284
     85 H44         8.2187  -10.9452   -1.4629 H         1 <0>         0.4221
@<TRIPOS>BOND
     1    1    2 1
     2    1   44 1
     3    1   45 1
     4    1   46 1
     5    2    3 1
     6    2    4 1
     7    2   13 1
     8    4    5 1
     9    4   47 1
    10    4   48 1
    11    5    6 1
    12    5   49 1
    13    5   50 1
    14    6   11 ar
    15    6    7 ar
    16    7    8 ar
    17    7   51 1
    18    8    9 ar
    19    8   52 1
    20    9   10 ar
    21    9   12 1
    22   10   11 ar
    23   10   53 1
    24   11   54 1
    25   12   55 1
    26   13   14 am
    27   13   56 1
    28   14   15 2
    29   14   16 1
    30   16   17 1
    31   16   57 1
    32   16   58 1
    33   17   26 2
    34   17   18 1
    35   18   23 ar
    36   18   19 ar
    37   19   20 ar
    38   19   59 1
    39   20   21 ar
    40   20   33 1
    41   21   22 ar
    42   21   60 1
    43   22   23 ar
    44   22   61 1
    45   23   24 1
    46   24   25 1
    47   24   26 1
    48   26   27 1
    49   27   32 ar
    50   27   28 ar
    51   28   29 ar
    52   28   62 1
    53   29   30 ar
    54   29   63 1
    55   30   31 ar
    56   30   64 1
    57   31   32 ar
    58   31   65 1
    59   32   66 1
    60   33   34 1
    61   34   35 1
    62   34   67 1
    63   34   68 1
    64   35   36 1
    65   35   69 1
    66   35   70 1
    67   36   37 1
    68   36   71 1
    69   36   72 1
    70   37   38 1
    71   37   73 1
    72   37   74 1
    73   38   43 1
    74   38   39 1
    75   38   85 1
    76   39   40 1
    77   39   75 1
    78   39   76 1
    79   40   41 1
    80   40   77 1
    81   40   78 1
    82   41   42 1
    83   41   79 1
    84   41   80 1
    85   42   43 1
    86   42   81 1
    87   42   82 1
    88   43   83 1
    89   43   84 1
