@<TRIPOS>MOLECULE
CHEMBL8395
   21    25     0     0     0
SMALL
USER_CHARGES

@<TRIPOS>ATOM
      1 C1         -0.0187    1.5269    0.0104 C.2       1 <0>         0.3913
      2 O1          0.9002    2.3104    0.0059 O.2       1 <0>        -0.3155
      3 C2         -1.5271    1.7894    0.0194 C.3       1 <0>        -0.0563
      4 C3         -2.0737    0.7969    1.0704 C.3       1 <0>         0.0143
      5 C4         -3.1658    0.4088    0.0158 C.3       1 <0>         0.0031
      6 C5         -2.0844    0.7955   -1.0270 C.3       1 <0>         0.0043
      7 C6         -1.0774   -0.3854   -1.0385 C.3       1 <0>         0.0037
      8 C7          0.0021   -0.0041    0.0020 C.3       1 <0>        -0.0557
      9 C8         -1.0542   -0.3988    1.0588 C.3       1 <0>         0.0148
     10 C9         -1.6202   -1.4038   -0.0018 C.3       1 <0>         0.0029
     11 C10        -3.1674   -1.1570   -0.0791 C.3       1 <0>         0.0678
     12 Cl1        -3.8502   -1.7240   -1.6486 Cl        1 <0>        -0.0366
     13 Cl2        -4.0271   -1.9036    1.3189 Cl        1 <0>        -0.0445
     14 Cl3        -1.0253   -3.1058   -0.0111 Cl        1 <0>         0.0134
     15 Cl4        -0.5000   -1.0252    2.6561 Cl        1 <0>        -0.0082
     16 Cl5         1.6063   -0.8259   -0.0411 Cl        1 <0>         0.0078
     17 Cl6        -0.5556   -0.9979   -2.6520 Cl        1 <0>        -0.0097
     18 Cl7        -2.6218    1.4397   -2.6229 Cl        1 <0>        -0.0098
     19 Cl8        -4.7593    1.2517    0.0436 Cl        1 <0>         0.0136
     20 Cl9        -2.5893    1.4252    2.6799 Cl        1 <0>        -0.0082
     21 Cl10       -2.0852    3.5038    0.0072 Cl        1 <0>         0.0078
@<TRIPOS>BOND
     1    1    8 1
     2    1    2 2
     3    1    3 1
     4    3    6 1
     5    3    4 1
     6    3   21 1
     7    4    9 1
     8    4    5 1
     9    4   20 1
    10    5   11 1
    11    5    6 1
    12    5   19 1
    13    6    7 1
    14    6   18 1
    15    7   10 1
    16    7    8 1
    17    7   17 1
    18    8    9 1
    19    8   16 1
    20    9   10 1
    21    9   15 1
    22   10   11 1
    23   10   14 1
    24   11   12 1
    25   11   13 1
