@<TRIPOS>MOLECULE
CHEMBL1097284
   76    82     0     0     0
SMALL
USER_CHARGES

@<TRIPOS>ATOM
      1 C1         -2.3428   -1.3984    2.4512 C.3       1 <0>        -0.1268
      2 C2         -1.7885   -2.5855    1.7064 C.ar      1 <0>        -0.0259
      3 C3         -1.4623   -2.4709    0.3680 C.ar      1 <0>        -0.1421
      4 C4         -0.9538   -3.5597   -0.3152 C.ar      1 <0>        -0.0151
      5 C5         -0.7712   -4.7631    0.3402 C.ar      1 <0>        -0.6865
      6 C6         -1.0967   -4.8775    1.6788 C.ar      1 <0>        -0.0150
      7 C7         -1.6011   -3.7874    2.3631 C.ar      1 <0>        -0.1420
      8 S1         -0.1243   -6.1513   -0.5310 S.o2      1 <0>         2.7163
      9 O1         -0.5605   -7.3089    0.1683 O.2       1 <0>        -0.9447
     10 O2         -0.4124   -5.9382   -1.9060 O.2       1 <0>        -0.9451
     11 N1          1.5240   -6.0999   -0.3792 N.pl3     1 <0>        -1.0109
     12 C8          2.4629   -5.4192   -1.2766 C.3       1 <0>         0.1648
     13 C9          3.8543   -5.6453   -0.7414 C.ar      1 <0>        -0.1020
     14 C10         5.0892   -5.2247   -1.2048 C.ar      1 <0>        -0.0936
     15 C11         6.2397   -5.5703   -0.5226 C.ar      1 <0>        -0.1059
     16 C12         6.1580   -6.3374    0.6247 C.ar      1 <0>        -0.0950
     17 C13         4.9261   -6.7574    1.0876 C.ar      1 <0>        -0.0853
     18 C14         3.7727   -6.4114    0.4044 C.ar      1 <0>        -0.0983
     19 C15         2.3233   -6.7209    0.6817 C.3       1 <0>         0.1654
     20 C16         7.4123   -6.7156    1.3697 C.3       1 <0>         0.1847
     21 C17         8.3760   -5.5051    1.4477 C.3       1 <0>        -0.1488
     22 C18         9.6422   -5.9007    0.6399 C.3       1 <0>        -0.1146
     23 C19         9.1151   -6.9696   -0.3237 C.3       1 <0>        -0.0850
     24 H1          8.5476   -6.5087   -1.1322 H         1 <0>         0.0799
     25 C20         8.1771   -7.7899    0.6053 C.3       1 <0>        -0.0405
     26 C21         7.3605   -8.7257   -0.2610 C.3       1 <0>        -0.1003
     27 C22         8.3369   -9.7082   -0.9357 C.3       1 <0>        -0.1136
     28 C23         9.3897   -8.9550   -1.7357 C.3       1 <0>        -0.0415
     29 H2          8.8805   -8.4028   -2.5256 H         1 <0>         0.0754
     30 C24        10.1470   -7.9287   -0.8806 C.3       1 <0>        -0.0737
     31 H3         10.6486   -8.4455   -0.0625 H         1 <0>         0.0844
     32 C25        11.1657   -7.2146   -1.7692 C.3       1 <0>        -0.1116
     33 C26        12.2686   -8.2104   -2.1261 C.3       1 <0>        -0.0814
     34 C27        11.6925   -9.5156   -2.6084 C.ar      1 <0>        -0.0584
     35 C28        10.3731   -9.8868   -2.3827 C.ar      1 <0>        -0.0766
     36 C29         9.9145  -11.1179   -2.8307 C.ar      1 <0>        -0.1030
     37 C30        10.7734  -12.0083   -3.4397 C.ar      1 <0>        -0.1460
     38 C31        12.1082  -11.6695   -3.6063 C.ar      1 <0>         0.1031
     39 C32        12.5484  -10.3968   -3.2549 C.ar      1 <0>        -0.1502
     40 O3         12.9626  -12.5378   -4.2090 O.3       1 <0>        -0.5013
     41 C33         9.0168   -8.6153    1.5822 C.3       1 <0>        -0.1385
     42 O4          7.0875   -7.1779    2.6822 O.3       1 <0>        -0.5446
     43 H4         -1.5225   -0.8254    2.8835 H         1 <0>         0.0805
     44 H5         -2.9038   -0.7669    1.7623 H         1 <0>         0.0742
     45 H6         -3.0030   -1.7445    3.2465 H         1 <0>         0.0742
     46 H7         -1.6049   -1.5307   -0.1439 H         1 <0>         0.1342
     47 H8         -0.6996   -3.4704   -1.3610 H         1 <0>         0.1404
     48 H9         -0.9543   -5.8178    2.1907 H         1 <0>         0.1406
     49 H10        -1.8518   -3.8757    3.4098 H         1 <0>         0.1343
     50 H11         2.3814   -5.8349   -2.2809 H         1 <0>         0.0897
     51 H12         2.2446   -4.3515   -1.2988 H         1 <0>         0.0807
     52 H13         5.1532   -4.6257   -2.1012 H         1 <0>         0.1269
     53 H14         7.2023   -5.2417   -0.8855 H         1 <0>         0.1310
     54 H15         4.8625   -7.3566    1.9839 H         1 <0>         0.1322
     55 H16         2.0344   -6.3114    1.6497 H         1 <0>         0.0811
     56 H17         2.1706   -7.8001    0.6757 H         1 <0>         0.0897
     57 H18         7.9089   -4.6257    1.0043 H         1 <0>         0.0735
     58 H19         8.6418   -5.3048    2.4857 H         1 <0>         0.0762
     59 H20        10.0319   -5.0441    0.0899 H         1 <0>         0.0689
     60 H21        10.4049   -6.3171    1.2980 H         1 <0>         0.0736
     61 H22         6.6503   -9.2757    0.3563 H         1 <0>         0.0673
     62 H23         6.8266   -8.1548   -1.0207 H         1 <0>         0.0657
     63 H24         8.8288  -10.3082   -0.1701 H         1 <0>         0.0712
     64 H25         7.7805  -10.3656   -1.6037 H         1 <0>         0.0659
     65 H26        10.6782   -6.8640   -2.6789 H         1 <0>         0.0658
     66 H27        11.5938   -6.3688   -1.2313 H         1 <0>         0.0723
     67 H28        12.8936   -7.7844   -2.9111 H         1 <0>         0.0754
     68 H29        12.8818   -8.3951   -1.2441 H         1 <0>         0.0777
     69 H30         8.8751  -11.3810   -2.7009 H         1 <0>         0.1276
     70 H31        10.4089  -12.9646   -3.7847 H         1 <0>         0.1275
     71 H32        13.5840  -10.1272   -3.4004 H         1 <0>         0.1267
     72 H33        13.0208  -12.4303   -5.1682 H         1 <0>         0.3894
     73 H34         8.3602   -9.1090    2.2986 H         1 <0>         0.0637
     74 H35         9.5826   -9.3661    1.0305 H         1 <0>         0.0621
     75 H36         9.7060   -7.9588    2.1135 H         1 <0>         0.0551
     76 H37         6.6173   -6.5285    3.2228 H         1 <0>         0.3750
@<TRIPOS>BOND
     1    1    2 1
     2    1   43 1
     3    1   44 1
     4    1   45 1
     5    2    7 ar
     6    2    3 ar
     7    3    4 ar
     8    3   46 1
     9    4    5 ar
    10    4   47 1
    11    5    6 ar
    12    5    8 1
    13    6    7 ar
    14    6   48 1
    15    7   49 1
    16    8    9 2
    17    8   10 2
    18    8   11 1
    19   11   19 1
    20   11   12 1
    21   12   13 1
    22   12   50 1
    23   12   51 1
    24   13   18 ar
    25   13   14 ar
    26   14   15 ar
    27   14   52 1
    28   15   16 ar
    29   15   53 1
    30   16   17 ar
    31   16   20 1
    32   17   18 ar
    33   17   54 1
    34   18   19 1
    35   19   55 1
    36   19   56 1
    37   20   25 1
    38   20   21 1
    39   20   42 1
    40   21   22 1
    41   21   57 1
    42   21   58 1
    43   22   23 1
    44   22   59 1
    45   22   60 1
    46   23   24 1
    47   23   30 1
    48   23   25 1
    49   25   26 1
    50   25   41 1
    51   26   27 1
    52   26   61 1
    53   26   62 1
    54   27   28 1
    55   27   63 1
    56   27   64 1
    57   28   29 1
    58   28   35 1
    59   28   30 1
    60   30   31 1
    61   30   32 1
    62   32   33 1
    63   32   65 1
    64   32   66 1
    65   33   34 1
    66   33   67 1
    67   33   68 1
    68   34   39 ar
    69   34   35 ar
    70   35   36 ar
    71   36   37 ar
    72   36   69 1
    73   37   38 ar
    74   37   70 1
    75   38   39 ar
    76   38   40 1
    77   39   71 1
    78   40   72 1
    79   41   73 1
    80   41   74 1
    81   41   75 1
    82   42   76 1
