@<TRIPOS>MOLECULE
CHEMBL411
   40    41     0     0     0
SMALL
USER_CHARGES

@<TRIPOS>ATOM
      1 C1         -0.9774   -1.9680   -0.2509 C.3       1 <0>        -0.1458
      2 C2         -0.3264   -0.5851   -0.3194 C.3       1 <0>        -0.0870
      3 C3          0.7431   -0.5855   -1.3812 C.2       1 <0>        -0.0731
      4 C4          2.0213   -0.8257   -1.0467 C.2       1 <0>        -0.0734
      5 C5          3.0672   -0.9702   -2.1220 C.3       1 <0>        -0.0872
      6 C6          3.2323   -2.4492   -2.4774 C.3       1 <0>        -0.1458
      7 C7          2.4012   -0.9479    0.3717 C.ar      1 <0>        -0.0475
      8 C8          2.3805    0.1760    1.2024 C.ar      1 <0>        -0.0918
      9 C9          2.7367    0.0567    2.5283 C.ar      1 <0>        -0.1429
     10 C10         3.1158   -1.1779    3.0394 C.ar      1 <0>         0.1037
     11 C11         3.1380   -2.2975    2.2179 C.ar      1 <0>        -0.1428
     12 C12         2.7780   -2.1893    0.8921 C.ar      1 <0>        -0.0920
     13 O1          3.4666   -1.2905    4.3472 O.3       1 <0>        -0.5003
     14 C13         0.3862   -0.3222   -2.7864 C.ar      1 <0>        -0.0476
     15 C14         0.8071    0.8571   -3.4075 C.ar      1 <0>        -0.0918
     16 C15         0.4709    1.0988   -4.7219 C.ar      1 <0>        -0.1431
     17 C16        -0.2851    0.1729   -5.4292 C.ar      1 <0>         0.1038
     18 C17        -0.7057   -1.0004   -4.8163 C.ar      1 <0>        -0.1429
     19 C18        -0.3695   -1.2537   -3.5041 C.ar      1 <0>        -0.0920
     20 O2         -0.6145    0.4158   -6.7247 O.3       1 <0>        -0.5003
     21 H1         -1.5127   -2.1640   -1.1799 H         1 <0>         0.0555
     22 H2         -0.2069   -2.7257   -0.1087 H         1 <0>         0.0556
     23 H3         -1.6765   -1.9994    0.5848 H         1 <0>         0.0577
     24 H4         -1.0823    0.1606   -0.5654 H         1 <0>         0.0688
     25 H5          0.1199   -0.3454    0.6457 H         1 <0>         0.0770
     26 H6          2.7565   -0.4162   -3.0078 H         1 <0>         0.0773
     27 H7          4.0167   -0.5751   -1.7609 H         1 <0>         0.0687
     28 H8          3.9859   -2.5533   -3.2580 H         1 <0>         0.0577
     29 H9          3.5469   -3.0025   -1.5926 H         1 <0>         0.0555
     30 H10         2.2818   -2.8453   -2.8348 H         1 <0>         0.0554
     31 H11         2.0861    1.1364    0.8058 H         1 <0>         0.1274
     32 H12         2.7213    0.9246    3.1708 H         1 <0>         0.1297
     33 H13         3.4339   -3.2553    2.6197 H         1 <0>         0.1291
     34 H14         2.7912   -3.0614    0.2551 H         1 <0>         0.1276
     35 H15         2.7274   -1.4940    4.9365 H         1 <0>         0.3912
     36 H16         1.3947    1.5778   -2.8582 H         1 <0>         0.1275
     37 H17         0.7953    2.0099   -5.2026 H         1 <0>         0.1297
     38 H18        -1.2936   -1.7172   -5.3703 H         1 <0>         0.1291
     39 H19        -0.6932   -2.1683   -3.0297 H         1 <0>         0.1277
     40 H20         0.0306    0.0832   -7.3637 H         1 <0>         0.3912
@<TRIPOS>BOND
     1    1    2 1
     2    1   21 1
     3    1   22 1
     4    1   23 1
     5    2    3 1
     6    2   24 1
     7    2   25 1
     8    3    4 2
     9    3   14 1
    10    4    5 1
    11    4    7 1
    12    5    6 1
    13    5   26 1
    14    5   27 1
    15    6   28 1
    16    6   29 1
    17    6   30 1
    18    7   12 ar
    19    7    8 ar
    20    8    9 ar
    21    8   31 1
    22    9   10 ar
    23    9   32 1
    24   10   11 ar
    25   10   13 1
    26   11   12 ar
    27   11   33 1
    28   12   34 1
    29   13   35 1
    30   14   19 ar
    31   14   15 ar
    32   15   16 ar
    33   15   36 1
    34   16   17 ar
    35   16   37 1
    36   17   18 ar
    37   17   20 1
    38   18   19 ar
    39   18   38 1
    40   19   39 1
    41   20   40 1
