@<TRIPOS>MOLECULE
CHEMBL364492
   67    71     0     0     0
SMALL
USER_CHARGES

@<TRIPOS>ATOM
      1 C1         -0.0578    1.5399    0.0145 C.3       1 <0>        -0.1842
      2 C2         -0.0263    0.0102    0.0040 C.3       1 <0>         0.0225
      3 C3          0.6947   -0.4765   -1.2546 C.3       1 <0>        -0.1844
      4 N1          0.6864   -0.4730    1.1943 N.4       1 <0>        -0.3802
      5 C4          0.7250   -1.9408    1.1771 C.3       1 <0>        -0.0276
      6 C5          1.5656   -2.4424    2.3559 C.3       1 <0>         0.1005
      7 N2          1.0233   -1.8637    3.5950 N.pl3     1 <0>        -0.6441
      8 C6          0.7975   -0.4108    3.6406 C.3       1 <0>         0.1013
      9 C7         -0.0068   -0.0051    2.4012 C.3       1 <0>        -0.0270
     10 C8          0.7316   -2.6708    4.6970 C.ar      1 <0>         0.2016
     11 C9          0.8447   -4.0518    4.5978 C.ar      1 <0>        -0.1838
     12 C10         0.5560   -4.8468    5.6894 C.ar      1 <0>        -0.0567
     13 C11         0.1542   -4.2698    6.8802 C.ar      1 <0>        -0.1242
     14 C12         0.0406   -2.8954    6.9824 C.ar      1 <0>        -0.0530
     15 C13         0.3333   -2.0941    5.8963 C.ar      1 <0>        -0.1848
     16 C14        -0.1610   -5.1406    8.0690 C.3       1 <0>         0.2392
     17 C15         0.6691   -4.6994    9.2485 C.ar      1 <0>        -0.1006
     18 C16         2.0313   -4.9682    9.2172 C.ar      1 <0>        -0.0886
     19 C17         2.8467   -4.5818   10.2595 C.ar      1 <0>        -0.1452
     20 C18         2.3007   -3.9172   11.3485 C.ar      1 <0>         0.1151
     21 C19         0.9425   -3.6534   11.3804 C.ar      1 <0>        -0.1475
     22 C20         0.1218   -4.0490   10.3320 C.ar      1 <0>        -0.0472
     23 C21        -1.3501   -3.7521   10.4488 C.3       1 <0>        -0.1036
     24 C22        -2.0239   -3.7940    9.0782 C.3       1 <0>         0.1139
     25 N3         -1.5860   -5.0230    8.3960 N.pl3     1 <0>        -0.6179
     26 C23        -2.4911   -6.0366    8.0736 C.ar      1 <0>         0.2401
     27 C24        -3.8510   -5.8501    8.2909 C.ar      1 <0>        -0.2055
     28 C25        -4.7460   -6.8526    7.9719 C.ar      1 <0>        -0.0533
     29 C26        -4.2922   -8.0430    7.4357 C.ar      1 <0>        -0.2011
     30 C27        -2.9354   -8.2347    7.2161 C.ar      1 <0>         0.1538
     31 C28        -2.0343   -7.2293    7.5303 C.ar      1 <0>        -0.2260
     32 O1         -2.4909   -9.4057    6.6888 O.3       1 <0>        -0.4991
     33 O2          3.0961   -3.5275   12.3792 O.3       1 <0>        -0.4973
     34 H1          0.9622    1.9243    0.0084 H         1 <0>         0.0818
     35 H2         -0.5865    1.8984   -0.8687 H         1 <0>         0.1070
     36 H3         -0.5714    1.8866    0.9112 H         1 <0>         0.0817
     37 H4         -1.0462   -0.3742    0.0102 H         1 <0>         0.1356
     38 H5          1.7146   -0.0920   -1.2608 H         1 <0>         0.0819
     39 H6          0.7171   -1.5662   -1.2621 H         1 <0>         0.0819
     40 H7          0.1659   -0.1179   -2.1378 H         1 <0>         0.1070
     41 H8         -0.2889   -2.3320    1.2612 H         1 <0>         0.1321
     42 H9          1.1700   -2.2817    0.2423 H         1 <0>         0.1428
     43 H10         1.5136   -3.5300    2.4063 H         1 <0>         0.1268
     44 H11         2.6012   -2.1278    2.2274 H         1 <0>         0.0874
     45 H12         0.2377   -0.1552    4.5403 H         1 <0>         0.1258
     46 H13         1.7556    0.1090    3.6418 H         1 <0>         0.0870
     47 H14        -0.1011    1.0804    2.3683 H         1 <0>         0.1426
     48 H15        -0.9986   -0.4549    2.4482 H         1 <0>         0.1321
     49 H16         1.1577   -4.5031    3.6679 H         1 <0>         0.1237
     50 H17         0.6437   -5.9206    5.6130 H         1 <0>         0.1270
     51 H18        -0.2734   -2.4479    7.9138 H         1 <0>         0.1286
     52 H19         0.2488   -1.0205    5.9781 H         1 <0>         0.1225
     53 H20         0.0720   -6.1784    7.8303 H         1 <0>         0.1039
     54 H21         2.4556   -5.4848    8.3690 H         1 <0>         0.1258
     55 H22         3.9049   -4.7955   10.2289 H         1 <0>         0.1314
     56 H23         0.5172   -3.1357   12.2275 H         1 <0>         0.1302
     57 H24        -1.8148   -4.4929   11.0994 H         1 <0>         0.0869
     58 H25        -1.4826   -2.7612   10.8831 H         1 <0>         0.0879
     59 H26        -3.1070   -3.8058    9.1999 H         1 <0>         0.0933
     60 H27        -1.7272   -2.9225    8.4945 H         1 <0>         0.0731
     61 H28        -4.2082   -4.9209    8.7097 H         1 <0>         0.1250
     62 H29        -5.8024   -6.7062    8.1421 H         1 <0>         0.1275
     63 H30        -4.9944   -8.8251    7.1877 H         1 <0>         0.1260
     64 H31        -0.9785   -7.3753    7.3562 H         1 <0>         0.1248
     65 H32        -2.4467   -9.4104    5.7228 H         1 <0>         0.3912
     66 H33         3.4675   -2.6407   12.2759 H         1 <0>         0.3928
     67 H34         1.6293   -0.1141    1.1890 H         1 <0>         0.4200
@<TRIPOS>BOND
     1    1    2 1
     2    1   34 1
     3    1   35 1
     4    1   36 1
     5    2    3 1
     6    2    4 1
     7    2   37 1
     8    3   38 1
     9    3   39 1
    10    3   40 1
    11    4    9 1
    12    4    5 1
    13    4   67 1
    14    5    6 1
    15    5   41 1
    16    5   42 1
    17    6    7 1
    18    6   43 1
    19    6   44 1
    20    7    8 1
    21    7   10 1
    22    8    9 1
    23    8   45 1
    24    8   46 1
    25    9   47 1
    26    9   48 1
    27   10   15 ar
    28   10   11 ar
    29   11   12 ar
    30   11   49 1
    31   12   13 ar
    32   12   50 1
    33   13   14 ar
    34   13   16 1
    35   14   15 ar
    36   14   51 1
    37   15   52 1
    38   16   25 1
    39   16   17 1
    40   16   53 1
    41   17   22 ar
    42   17   18 ar
    43   18   19 ar
    44   18   54 1
    45   19   20 ar
    46   19   55 1
    47   20   21 ar
    48   20   33 1
    49   21   22 ar
    50   21   56 1
    51   22   23 1
    52   23   24 1
    53   23   57 1
    54   23   58 1
    55   24   25 1
    56   24   59 1
    57   24   60 1
    58   25   26 1
    59   26   31 ar
    60   26   27 ar
    61   27   28 ar
    62   27   61 1
    63   28   29 ar
    64   28   62 1
    65   29   30 ar
    66   29   63 1
    67   30   31 ar
    68   30   32 1
    69   31   64 1
    70   32   65 1
    71   33   66 1
