@<TRIPOS>MOLECULE
CHEMBL187311
   29    31     0     0     0
SMALL
USER_CHARGES

@<TRIPOS>ATOM
      1 C1         -0.3154    1.4830    0.0480 C.3       1 <0>        -0.1239
      2 C2         -0.1406   -0.0136    0.0201 C.ar      1 <0>        -0.0222
      3 C3         -0.2405   -0.6978   -1.1719 C.ar      1 <0>        -0.1499
      4 C4         -0.0800   -2.0772   -1.1986 C.ar      1 <0>         0.1428
      5 C5          0.1820   -2.7728   -0.0246 C.ar      1 <0>        -0.1542
      6 C6          0.2838   -2.0961    1.1710 C.ar      1 <0>        -0.0412
      7 C7          0.1284   -0.7082    1.2013 C.ar      1 <0>        -0.0518
      8 C8          0.2423    0.0219    2.4801 C.2       1 <0>         0.3122
      9 N1         -0.3370   -0.3309    3.6004 N.2       1 <0>        -0.4607
     10 C9         -0.0106    0.5695    4.5632 C.ar      1 <0>         0.0502
     11 C10        -0.3348    0.6926    5.9167 C.ar      1 <0>        -0.0726
     12 C11         0.1690    1.7508    6.6476 C.ar      1 <0>         0.1171
     13 C12         0.9956    2.6922    6.0420 C.ar      1 <0>        -0.0861
     14 C13         1.3213    2.5798    4.7058 C.ar      1 <0>        -0.0521
     15 C14         0.8242    1.5224    3.9583 C.ar      1 <0>         0.0218
     16 O1          0.9616    1.1446    2.6667 O.3       1 <0>        -0.1916
     17 Br1         2.4451    3.8661    3.8943 Br        1 <0>        -0.0192
     18 O2         -0.1446    1.8734    7.9649 O.3       1 <0>        -0.4844
     19 O3         -0.1801   -2.7480   -2.3751 O.3       1 <0>        -0.4957
     20 H1          0.6612    1.9640   -0.0078 H         1 <0>         0.0847
     21 H2         -0.9226    1.7938   -0.8022 H         1 <0>         0.0789
     22 H3         -0.8112    1.7737    0.9742 H         1 <0>         0.0667
     23 H4         -0.4441   -0.1607   -2.0865 H         1 <0>         0.1411
     24 H5          0.3058   -3.8454   -0.0495 H         1 <0>         0.1419
     25 H6          0.4875   -2.6374    2.0831 H         1 <0>         0.1401
     26 H7         -0.9767   -0.0362    6.3892 H         1 <0>         0.1523
     27 H8          1.3845    3.5165    6.6214 H         1 <0>         0.1587
     28 H9          0.4721    1.4246    8.5594 H         1 <0>         0.3988
     29 H10         0.6582   -2.8388   -2.8485 H         1 <0>         0.3983
@<TRIPOS>BOND
     1    1    2 1
     2    1   20 1
     3    1   21 1
     4    1   22 1
     5    2    7 ar
     6    2    3 ar
     7    3    4 ar
     8    3   23 1
     9    4    5 ar
    10    4   19 1
    11    5    6 ar
    12    5   24 1
    13    6    7 ar
    14    6   25 1
    15    7    8 1
    16    8   16 1
    17    8    9 2
    18    9   10 1
    19   10   15 ar
    20   10   11 ar
    21   11   12 ar
    22   11   26 1
    23   12   13 ar
    24   12   18 1
    25   13   14 ar
    26   13   27 1
    27   14   15 ar
    28   14   17 1
    29   15   16 1
    30   18   28 1
    31   19   29 1
