@<TRIPOS>MOLECULE
CHEMBL417694
   63    67     0     0     0
SMALL
USER_CHARGES

@<TRIPOS>ATOM
      1 C1         -0.2283   -0.5815    1.5233 C.ar      1 <0>        -0.0668
      2 C2         -0.2130    0.7727    1.7846 C.ar      1 <0>        -0.1430
      3 C3          0.4083    1.6447    0.9013 C.ar      1 <0>         0.1166
      4 C4          1.0157    1.1578   -0.2478 C.ar      1 <0>        -0.1440
      5 C5          1.0040   -0.1952   -0.5158 C.ar      1 <0>        -0.0823
      6 C6          0.3815   -1.0743    0.3699 C.ar      1 <0>        -0.0419
      7 C7          0.3671   -2.5286    0.0857 C.2       1 <0>        -0.2180
      8 C8          1.0441   -3.4339    0.9421 C.2       1 <0>         0.4336
      9 O1          1.6506   -3.0425    1.9263 O.2       1 <0>        -0.4497
     10 C9          0.9865   -4.8670    0.5974 C.ar      1 <0>        -0.2228
     11 C10         1.6249   -5.8238    1.3875 C.ar      1 <0>        -0.0106
     12 C11         1.5543   -7.1443    1.0444 C.ar      1 <0>        -0.1681
     13 C12         0.8487   -7.5397   -0.0892 C.ar      1 <0>         0.1742
     14 C13         0.2099   -6.6016   -0.8831 C.ar      1 <0>        -0.1715
     15 C14         0.2727   -5.2565   -0.5474 C.ar      1 <0>         0.1593
     16 O2         -0.3447   -4.3286   -1.3090 O.3       1 <0>        -0.2135
     17 C15        -0.3127   -3.0209   -1.0168 C.2       1 <0>         0.1205
     18 S1         -1.1570   -1.8906   -2.0723 S.3       1 <0>         0.1317
     19 C16        -1.7401   -2.8974   -3.3956 C.ar      1 <0>        -0.1967
     20 C17        -3.0322   -3.4061   -3.3646 C.ar      1 <0>        -0.0113
     21 C18        -3.4882   -4.1950   -4.4019 C.ar      1 <0>        -0.1511
     22 C19        -2.6561   -4.4799   -5.4748 C.ar      1 <0>         0.1537
     23 C20        -1.3652   -3.9726   -5.5065 C.ar      1 <0>        -0.2129
     24 C21        -0.9097   -3.1781   -4.4732 C.ar      1 <0>        -0.0109
     25 O3         -3.1059   -5.2573   -6.4958 O.3       1 <0>        -0.3245
     26 C22        -2.1959   -5.5101   -7.5682 C.3       1 <0>         0.0228
     27 C23        -2.8747   -6.3959   -8.6149 C.3       1 <0>        -0.0008
     28 N1         -4.0161   -5.6781   -9.1978 N.4       1 <0>        -0.3846
     29 C24        -4.7590   -6.5813  -10.0848 C.3       1 <0>        -0.0071
     30 C25        -5.9948   -5.8633  -10.6313 C.3       1 <0>        -0.1467
     31 C26        -5.5533   -4.6243  -11.4156 C.3       1 <0>        -0.1392
     32 C27        -4.7165   -3.7249  -10.5012 C.3       1 <0>        -0.1455
     33 C28        -3.5281   -4.5221   -9.9595 C.3       1 <0>        -0.0134
     34 O4          0.7869   -8.8552   -0.4191 O.3       1 <0>        -0.4909
     35 O5          0.4214    2.9788    1.1621 O.3       1 <0>        -0.4999
     36 H1         -0.7081   -1.2599    2.2132 H         1 <0>         0.1268
     37 H2         -0.6854    1.1551    2.6774 H         1 <0>         0.1335
     38 H3          1.4979    1.8392   -0.9330 H         1 <0>         0.1329
     39 H4          1.4762   -0.5733   -1.4104 H         1 <0>         0.1278
     40 H5          2.1734   -5.5212    2.2672 H         1 <0>         0.1513
     41 H6          2.0486   -7.8852    1.6553 H         1 <0>         0.1464
     42 H7         -0.3350   -6.9159   -1.7609 H         1 <0>         0.1449
     43 H8         -3.6798   -3.1850   -2.5291 H         1 <0>         0.1480
     44 H9         -4.4928   -4.5906   -4.3780 H         1 <0>         0.1430
     45 H10        -0.7180   -4.1952   -6.3419 H         1 <0>         0.1367
     46 H11         0.0935   -2.7790   -4.5004 H         1 <0>         0.1420
     47 H12        -1.9028   -4.5656   -8.0264 H         1 <0>         0.0898
     48 H13        -1.3112   -6.0166   -7.1822 H         1 <0>         0.1125
     49 H14        -2.1606   -6.6420   -9.4008 H         1 <0>         0.1508
     50 H15        -3.2254   -7.3133   -8.1422 H         1 <0>         0.1436
     51 H16        -4.1188   -6.8837  -10.9135 H         1 <0>         0.1297
     52 H17        -5.0697   -7.4641   -9.5260 H         1 <0>         0.1313
     53 H18        -6.5440   -6.5350  -11.2911 H         1 <0>         0.1136
     54 H19        -6.6358   -5.5607   -9.8034 H         1 <0>         0.0881
     55 H20        -4.9543   -4.9301  -12.2734 H         1 <0>         0.0824
     56 H21        -6.4318   -4.0782  -11.7592 H         1 <0>         0.0952
     57 H22        -4.3520   -2.8681  -11.0680 H         1 <0>         0.1128
     58 H23        -5.3310   -3.3778   -9.6706 H         1 <0>         0.0879
     59 H24        -2.9301   -3.8847   -9.3082 H         1 <0>         0.1268
     60 H25        -2.9141   -4.8684  -10.7909 H         1 <0>         0.1310
     61 H26         0.0367   -9.3238   -0.0283 H         1 <0>         0.4029
     62 H27         1.1846    3.2710    1.6790 H         1 <0>         0.3949
     63 H28        -4.6249   -5.3598   -8.4587 H         1 <0>         0.4290
@<TRIPOS>BOND
     1    1    6 ar
     2    1    2 ar
     3    1   36 1
     4    2    3 ar
     5    2   37 1
     6    3    4 ar
     7    3   35 1
     8    4    5 ar
     9    4   38 1
    10    5    6 ar
    11    5   39 1
    12    6    7 1
    13    7   17 2
    14    7    8 1
    15    8    9 2
    16    8   10 1
    17   10   15 ar
    18   10   11 ar
    19   11   12 ar
    20   11   40 1
    21   12   13 ar
    22   12   41 1
    23   13   14 ar
    24   13   34 1
    25   14   15 ar
    26   14   42 1
    27   15   16 1
    28   16   17 1
    29   17   18 1
    30   18   19 1
    31   19   24 ar
    32   19   20 ar
    33   20   21 ar
    34   20   43 1
    35   21   22 ar
    36   21   44 1
    37   22   23 ar
    38   22   25 1
    39   23   24 ar
    40   23   45 1
    41   24   46 1
    42   25   26 1
    43   26   27 1
    44   26   47 1
    45   26   48 1
    46   27   28 1
    47   27   49 1
    48   27   50 1
    49   28   33 1
    50   28   29 1
    51   28   63 1
    52   29   30 1
    53   29   51 1
    54   29   52 1
    55   30   31 1
    56   30   53 1
    57   30   54 1
    58   31   32 1
    59   31   55 1
    60   31   56 1
    61   32   33 1
    62   32   57 1
    63   32   58 1
    64   33   59 1
    65   33   60 1
    66   34   61 1
    67   35   62 1
