@<TRIPOS>MOLECULE
CHEMBL212992
   46    49     0     0     0
SMALL
USER_CHARGES

@<TRIPOS>ATOM
      1 C1          0.0584    1.5233    0.1027 C.3       1 <0>        -0.1536
      2 C2          0.0781   -0.0066    0.0910 C.3       1 <0>        -0.1263
      3 C3          0.7500   -0.4982   -1.1927 C.3       1 <0>        -0.1189
      4 C4          0.7697   -2.0280   -1.2044 C.3       1 <0>        -0.0656
      5 H1         -0.2445   -2.4049   -1.0726 H         1 <0>         0.0769
      6 C5          1.6542   -2.5350   -0.0623 C.3       1 <0>        -0.1261
      7 C6          3.0920   -2.0574   -0.2771 C.3       1 <0>        -0.1077
      8 C7          3.6124   -2.5984   -1.6134 C.3       1 <0>        -0.1331
      9 H2          4.6491   -2.2917   -1.7523 H         1 <0>         0.1017
     10 C8          2.7493   -2.0215   -2.7459 C.3       1 <0>        -0.0998
     11 C9          1.3236   -2.5178   -2.5362 C.3       1 <0>        -0.0337
     12 C10         0.3898   -2.1390   -3.6904 C.3       1 <0>        -0.0796
     13 C11        -0.4764   -3.3563   -3.8798 C.ar      1 <0>        -0.0525
     14 C12        -1.6799   -3.4797   -4.5382 C.ar      1 <0>        -0.1351
     15 C13        -2.2565   -4.7516   -4.5819 C.ar      1 <0>         0.1277
     16 C14        -1.6467   -5.8488   -3.9899 C.ar      1 <0>        -0.1575
     17 C15        -0.4457   -5.7394   -3.3161 C.ar      1 <0>        -0.0608
     18 C16         0.1404   -4.4620   -3.2535 C.ar      1 <0>        -0.0964
     19 C17         1.3477   -4.0371   -2.5669 C.2       1 <0>         0.0143
     20 C18         2.3784   -4.7712   -2.0852 C.2       1 <0>        -0.1906
     21 C19         3.5287   -4.1018   -1.6016 C.2       1 <0>         0.4006
     22 O1          4.4643   -4.7458   -1.1710 O.2       1 <0>        -0.4593
     23 C20         2.3050   -6.2763   -2.0647 C.3       1 <0>        -0.1098
     24 O2         -3.4431   -4.9183   -5.2189 O.3       1 <0>        -0.4994
     25 H3          1.0803    1.9001    0.0602 H         1 <0>         0.0537
     26 H4         -0.4988    1.8861   -0.7610 H         1 <0>         0.0532
     27 H5         -0.4203    1.8735    1.0172 H         1 <0>         0.0536
     28 H6          0.6353   -0.3694    0.9547 H         1 <0>         0.0646
     29 H7         -0.9438   -0.3834    0.1335 H         1 <0>         0.0606
     30 H8          0.1928   -0.1354   -2.0564 H         1 <0>         0.0666
     31 H9          1.7719   -0.1213   -1.2351 H         1 <0>         0.0713
     32 H10         1.2807   -2.1476    0.8856 H         1 <0>         0.0752
     33 H11         1.6326   -3.6246   -0.0427 H         1 <0>         0.0642
     34 H12         3.1149   -0.9678   -0.2921 H         1 <0>         0.0812
     35 H13         3.7218   -2.4237    0.5336 H         1 <0>         0.0703
     36 H14         2.7710   -0.9323   -2.7093 H         1 <0>         0.0863
     37 H15         3.1237   -2.3676   -3.7092 H         1 <0>         0.0735
     38 H16        -0.2189   -1.2758   -3.4210 H         1 <0>         0.0934
     39 H17         0.9638   -1.9349   -4.5942 H         1 <0>         0.0939
     40 H18        -2.1579   -2.6290   -5.0010 H         1 <0>         0.1402
     41 H19        -2.1245   -6.8149   -4.0576 H         1 <0>         0.1313
     42 H20         0.0228   -6.5973   -2.8569 H         1 <0>         0.1406
     43 H21         2.1243   -6.6450   -3.0743 H         1 <0>         0.0696
     44 H22         3.2465   -6.6809   -1.6932 H         1 <0>         0.0765
     45 H23         1.4912   -6.5915   -1.4116 H         1 <0>         0.0699
     46 H24        -3.3586   -5.1350   -6.1575 H         1 <0>         0.3947
@<TRIPOS>BOND
     1    1    2 1
     2    1   25 1
     3    1   26 1
     4    1   27 1
     5    2    3 1
     6    2   28 1
     7    2   29 1
     8    3    4 1
     9    3   30 1
    10    3   31 1
    11    4    5 1
    12    4   11 1
    13    4    6 1
    14    6    7 1
    15    6   32 1
    16    6   33 1
    17    7    8 1
    18    7   34 1
    19    7   35 1
    20    8    9 1
    21    8   21 1
    22    8   10 1
    23   10   11 1
    24   10   36 1
    25   10   37 1
    26   11   19 1
    27   11   12 1
    28   12   13 1
    29   12   38 1
    30   12   39 1
    31   13   18 ar
    32   13   14 ar
    33   14   15 ar
    34   14   40 1
    35   15   16 ar
    36   15   24 1
    37   16   17 ar
    38   16   41 1
    39   17   18 ar
    40   17   42 1
    41   18   19 1
    42   19   20 2
    43   20   21 1
    44   20   23 1
    45   21   22 2
    46   23   43 1
    47   23   44 1
    48   23   45 1
    49   24   46 1
