@<TRIPOS>MOLECULE
CHEMBL442249
   82    86     0     0     0
SMALL
USER_CHARGES

@<TRIPOS>ATOM
      1 C1         -0.0187    1.5258    0.0104 C.3       1 <0>        -0.1657
      2 C2          0.0021   -0.0041    0.0020 C.3       1 <0>         0.1425
      3 H1          0.5123   -0.3556   -0.8948 H         1 <0>         0.0889
      4 C3         -1.4333   -0.5336    0.0129 C.3       1 <0>        -0.1225
      5 C4         -1.4157   -2.0577   -0.1212 C.3       1 <0>        -0.0776
      6 C5         -2.8295   -2.5793   -0.1105 C.ar      1 <0>        -0.0931
      7 C6         -3.4314   -2.9172    1.0875 C.ar      1 <0>        -0.1009
      8 C7         -4.7271   -3.3960    1.1000 C.ar      1 <0>        -0.1427
      9 C8         -5.4247   -3.5373   -0.0909 C.ar      1 <0>         0.1017
     10 C9         -4.8186   -3.1971   -1.2916 C.ar      1 <0>        -0.1424
     11 C10        -3.5245   -2.7138   -1.2982 C.ar      1 <0>        -0.1007
     12 O1         -6.6993   -4.0085   -0.0813 O.3       1 <0>        -0.5007
     13 N1          0.7106   -0.4894    1.1889 N.am      1 <0>        -0.7288
     14 C11         2.0538   -0.5998    1.1737 C.2       1 <0>         0.5129
     15 O2          2.6758   -0.2974    0.1774 O.2       1 <0>        -0.5246
     16 C12         2.7826   -1.0990    2.3946 C.3       1 <0>        -0.0696
     17 C13         4.2638   -1.1281    2.1185 C.2       1 <0>        -0.1412
     18 C14         5.0227   -2.2455    1.5590 C.ar      1 <0>        -0.0479
     19 C15         4.6771   -3.5319    1.1332 C.ar      1 <0>        -0.0999
     20 C16         5.6542   -4.3722    0.6397 C.ar      1 <0>         0.0930
     21 C17         6.9773   -3.9434    0.5656 C.ar      1 <0>        -0.1802
     22 C18         7.3297   -2.6790    0.9823 C.ar      1 <0>        -0.0855
     23 C19         6.3607   -1.8157    1.4825 C.ar      1 <0>         0.0804
     24 N2          6.4067   -0.5238    1.9641 N.pl3     1 <0>        -0.5852
     25 H2          7.2073    0.0202    2.0265 H         1 <0>         0.4185
     26 C20         5.1452   -0.1207    2.3362 C.2       1 <0>         0.1564
     27 C21         4.8033    1.2064    2.8922 C.ar      1 <0>        -0.0470
     28 C22         3.6787    1.8911    2.4299 C.ar      1 <0>        -0.0923
     29 C23         3.3649    3.1286    2.9530 C.ar      1 <0>        -0.1169
     30 C24         4.1625    3.6907    3.9339 C.ar      1 <0>        -0.1051
     31 C25         5.2791    3.0172    4.3962 C.ar      1 <0>        -0.1172
     32 C26         5.6006    1.7766    3.8855 C.ar      1 <0>        -0.1038
     33 O3          5.3240   -5.6244    0.2246 O.3       1 <0>        -0.3147
     34 C27         6.3836   -6.4427   -0.2752 C.3       1 <0>         0.0649
     35 C28         5.8236   -7.8046   -0.6907 C.3       1 <0>        -0.1507
     36 C29         6.9580   -8.6807   -1.2259 C.3       1 <0>        -0.0061
     37 N3          6.4204   -9.9883   -1.6248 N.4       1 <0>        -0.3815
     38 C30         5.9054  -10.6858   -0.4405 C.3       1 <0>        -0.0137
     39 C31         5.2711  -12.0133   -0.8614 C.3       1 <0>        -0.1460
     40 C32         6.3282  -12.8827   -1.5484 C.3       1 <0>        -0.1397
     41 C33         6.9115  -12.1151   -2.7383 C.3       1 <0>        -0.1465
     42 C34         7.4850  -10.7839   -2.2478 C.3       1 <0>        -0.0065
     43 H3          1.0039    1.9031    0.0027 H         1 <0>         0.0608
     44 H4         -0.5459    1.8868   -0.8726 H         1 <0>         0.0667
     45 H5         -0.5289    1.8773    0.9072 H         1 <0>         0.0584
     46 H6         -1.9156   -0.2570    0.9504 H         1 <0>         0.0721
     47 H7         -1.9862   -0.1019   -0.8214 H         1 <0>         0.0818
     48 H8         -0.9334   -2.3344   -1.0587 H         1 <0>         0.0730
     49 H9         -0.8628   -2.4894    0.7131 H         1 <0>         0.0730
     50 H10        -2.8879   -2.8071    2.0143 H         1 <0>         0.1254
     51 H11        -5.1966   -3.6605    2.0359 H         1 <0>         0.1287
     52 H12        -5.3596   -3.3061   -2.2200 H         1 <0>         0.1288
     53 H13        -3.0538   -2.4447   -2.2322 H         1 <0>         0.1259
     54 H14        -7.3727   -3.3195    0.0019 H         1 <0>         0.3928
     55 H15         0.2131   -0.7312    1.9857 H         1 <0>         0.3996
     56 H16         2.5826   -0.4337    3.2345 H         1 <0>         0.1023
     57 H17         2.4385   -2.1044    2.6374 H         1 <0>         0.1016
     58 H18         3.6516   -3.8658    1.1905 H         1 <0>         0.1286
     59 H19         7.7343   -4.6090    0.1778 H         1 <0>         0.1276
     60 H20         8.3590   -2.3577    0.9207 H         1 <0>         0.1268
     61 H21         3.0555    1.4535    1.6640 H         1 <0>         0.1311
     62 H22         2.4950    3.6598    2.5959 H         1 <0>         0.1279
     63 H23         3.9125    4.6597    4.3402 H         1 <0>         0.1277
     64 H24         5.8978    3.4616    5.1618 H         1 <0>         0.1285
     65 H25         6.4700    1.2498    4.2503 H         1 <0>         0.1223
     66 H26         6.8400   -5.9587   -1.1387 H         1 <0>         0.0703
     67 H27         7.1342   -6.5806    0.5030 H         1 <0>         0.0701
     68 H28         5.3672   -8.2885    0.1727 H         1 <0>         0.0984
     69 H29         5.0730   -7.6667   -1.4689 H         1 <0>         0.0986
     70 H30         7.4145   -8.1967   -2.0894 H         1 <0>         0.1348
     71 H31         7.7087   -8.8186   -0.4477 H         1 <0>         0.1330
     72 H32         6.7247  -10.8786    0.2520 H         1 <0>         0.1292
     73 H33         5.1555  -10.0645    0.0491 H         1 <0>         0.1325
     74 H34         4.8909  -12.5305    0.0195 H         1 <0>         0.1123
     75 H35         4.4514  -11.8217   -1.5538 H         1 <0>         0.0879
     76 H36         7.1234  -13.1171   -0.8407 H         1 <0>         0.0817
     77 H37         5.8681  -13.8060   -1.9005 H         1 <0>         0.0943
     78 H38         7.7039  -12.7051   -3.1989 H         1 <0>         0.1125
     79 H39         6.1259  -11.9256   -3.4697 H         1 <0>         0.0879
     80 H40         7.9013  -10.2349   -3.0925 H         1 <0>         0.1306
     81 H41         8.2707  -10.9746   -1.5168 H         1 <0>         0.1288
     82 H42         5.6706   -9.8547   -2.2867 H         1 <0>         0.4237
@<TRIPOS>BOND
     1    1    2 1
     2    1   43 1
     3    1   44 1
     4    1   45 1
     5    2    3 1
     6    2    4 1
     7    2   13 1
     8    4    5 1
     9    4   46 1
    10    4   47 1
    11    5    6 1
    12    5   48 1
    13    5   49 1
    14    6   11 ar
    15    6    7 ar
    16    7    8 ar
    17    7   50 1
    18    8    9 ar
    19    8   51 1
    20    9   10 ar
    21    9   12 1
    22   10   11 ar
    23   10   52 1
    24   11   53 1
    25   12   54 1
    26   13   14 am
    27   13   55 1
    28   14   15 2
    29   14   16 1
    30   16   17 1
    31   16   56 1
    32   16   57 1
    33   17   26 2
    34   17   18 1
    35   18   23 ar
    36   18   19 ar
    37   19   20 ar
    38   19   58 1
    39   20   21 ar
    40   20   33 1
    41   21   22 ar
    42   21   59 1
    43   22   23 ar
    44   22   60 1
    45   23   24 1
    46   24   25 1
    47   24   26 1
    48   26   27 1
    49   27   32 ar
    50   27   28 ar
    51   28   29 ar
    52   28   61 1
    53   29   30 ar
    54   29   62 1
    55   30   31 ar
    56   30   63 1
    57   31   32 ar
    58   31   64 1
    59   32   65 1
    60   33   34 1
    61   34   35 1
    62   34   66 1
    63   34   67 1
    64   35   36 1
    65   35   68 1
    66   35   69 1
    67   36   37 1
    68   36   70 1
    69   36   71 1
    70   37   42 1
    71   37   38 1
    72   37   82 1
    73   38   39 1
    74   38   72 1
    75   38   73 1
    76   39   40 1
    77   39   74 1
    78   39   75 1
    79   40   41 1
    80   40   76 1
    81   40   77 1
    82   41   42 1
    83   41   78 1
    84   41   79 1
    85   42   80 1
    86   42   81 1
