@<TRIPOS>MOLECULE
CHEMBL94030
   63    67     0     0     0
SMALL
USER_CHARGES

@<TRIPOS>ATOM
      1 C1         -0.0396    0.6852   -0.4191 C.ar      1 <0>        -0.0813
      2 C2          1.2334    1.2202   -0.4572 C.ar      1 <0>        -0.1440
      3 C3          2.3370    0.3928   -0.3084 C.ar      1 <0>         0.1167
      4 C4          2.1590   -0.9703   -0.1218 C.ar      1 <0>        -0.1393
      5 C5          0.8838   -1.5005   -0.0845 C.ar      1 <0>        -0.0894
      6 C6         -0.2144   -0.6737   -0.2330 C.ar      1 <0>        -0.0904
      7 C7         -1.6043   -1.2546   -0.1914 C.3       1 <0>        -0.0681
      8 H1         -2.3347   -0.4605   -0.0364 H         1 <0>         0.1420
      9 C8         -1.9038   -1.9937   -1.5064 C.3       1 <0>         0.1488
     10 H2         -2.8573   -2.5151   -1.4226 H         1 <0>         0.1003
     11 O1         -0.8693   -2.9330   -1.7559 O.3       1 <0>        -0.2994
     12 C9         -0.5808   -3.9296   -0.8878 C.ar      1 <0>         0.1774
     13 C10         0.0558   -5.0616   -1.3940 C.ar      1 <0>        -0.1726
     14 C11         0.3938   -6.1116   -0.5591 C.ar      1 <0>         0.1784
     15 C12         0.1023   -6.0472    0.7956 C.ar      1 <0>        -0.1928
     16 C13        -0.5342   -4.9309    1.3063 C.ar      1 <0>         0.1750
     17 C14        -0.8813   -3.8779    0.4675 C.ar      1 <0>        -0.2194
     18 S1         -1.7255   -2.4805    1.1491 S.3       1 <0>        -0.0593
     19 F1         -0.8200   -4.8634    2.6250 F         1 <0>        -0.1157
     20 O2          1.0132   -7.2102   -1.0679 O.3       1 <0>        -0.4867
     21 C15        -1.9699   -1.0013   -2.6386 C.ar      1 <0>        -0.1044
     22 C16        -0.8104   -0.6113   -3.2830 C.ar      1 <0>        -0.0351
     23 C17        -0.8682    0.2986   -4.3208 C.ar      1 <0>        -0.1409
     24 C18        -2.0910    0.8208   -4.7167 C.ar      1 <0>         0.1247
     25 C19        -3.2530    0.4276   -4.0688 C.ar      1 <0>        -0.2026
     26 C20        -3.1904   -0.4866   -3.0349 C.ar      1 <0>        -0.0591
     27 O3         -2.1504    1.7164   -5.7371 O.3       1 <0>        -0.3270
     28 C21        -3.4432    2.2121   -6.0907 C.3       1 <0>         0.0250
     29 C22        -3.3104    3.2010   -7.2506 C.3       1 <0>        -0.0010
     30 N1         -2.7925    2.5012   -8.4339 N.4       1 <0>        -0.3843
     31 C23        -2.5193    3.4762   -9.4965 C.3       1 <0>        -0.0070
     32 C24        -1.9038    2.7631  -10.7024 C.3       1 <0>        -0.1468
     33 C25        -2.8838    1.7051  -11.2177 C.3       1 <0>        -0.1390
     34 C26        -3.2193    0.7368  -10.0798 C.3       1 <0>        -0.1455
     35 C27        -3.7860    1.5250   -8.8970 C.3       1 <0>        -0.0130
     36 O4          3.5904    0.9166   -0.3460 O.3       1 <0>        -0.4997
     37 H3         -0.8992    1.3295   -0.5303 H         1 <0>         0.1250
     38 H4          1.3694    2.2816   -0.6029 H         1 <0>         0.1308
     39 H5          3.0165   -1.6166   -0.0061 H         1 <0>         0.1311
     40 H6          0.7447   -2.5616    0.0608 H         1 <0>         0.1288
     41 H7          0.2869   -5.1196   -2.4474 H         1 <0>         0.1493
     42 H8          0.3714   -6.8646    1.4481 H         1 <0>         0.1550
     43 H9          1.9786   -7.1546   -1.0639 H         1 <0>         0.4027
     44 H10         0.1413   -1.0181   -2.9745 H         1 <0>         0.1391
     45 H11         0.0379    0.6035   -4.8234 H         1 <0>         0.1355
     46 H12        -4.2061    0.8327   -4.3751 H         1 <0>         0.1319
     47 H13        -4.0952   -0.7964   -2.5331 H         1 <0>         0.1354
     48 H14        -4.0808    1.3813   -6.3928 H         1 <0>         0.0872
     49 H15        -3.8862    2.7166   -5.2321 H         1 <0>         0.1101
     50 H16        -4.2876    3.6266   -7.4790 H         1 <0>         0.1493
     51 H17        -2.6230    3.9992   -6.9707 H         1 <0>         0.1427
     52 H18        -3.4505    3.9573   -9.7958 H         1 <0>         0.1292
     53 H19        -1.8242    4.2303   -9.1272 H         1 <0>         0.1311
     54 H20        -1.7033    3.4884  -11.4909 H         1 <0>         0.1132
     55 H21        -0.9723    2.2818  -10.4042 H         1 <0>         0.0881
     56 H22        -3.7961    2.1911  -11.5637 H         1 <0>         0.0821
     57 H23        -2.4273    1.1558  -12.0411 H         1 <0>         0.0948
     58 H24        -3.9591    0.0138  -10.4233 H         1 <0>         0.1124
     59 H25        -2.3151    0.2135   -9.7687 H         1 <0>         0.0880
     60 H26        -4.0261    0.8386   -8.0851 H         1 <0>         0.1272
     61 H27        -4.6902    2.0477   -9.2091 H         1 <0>         0.1303
     62 H28         3.9278    1.1916    0.5175 H         1 <0>         0.3959
     63 H29        -1.9383    2.0216   -8.1926 H         1 <0>         0.4295
@<TRIPOS>BOND
     1    1    6 ar
     2    1    2 ar
     3    1   37 1
     4    2    3 ar
     5    2   38 1
     6    3    4 ar
     7    3   36 1
     8    4    5 ar
     9    4   39 1
    10    5    6 ar
    11    5   40 1
    12    6    7 1
    13    7    8 1
    14    7   18 1
    15    7    9 1
    16    9   10 1
    17    9   11 1
    18    9   21 1
    19   11   12 1
    20   12   17 ar
    21   12   13 ar
    22   13   14 ar
    23   13   41 1
    24   14   15 ar
    25   14   20 1
    26   15   16 ar
    27   15   42 1
    28   16   17 ar
    29   16   19 1
    30   17   18 1
    31   20   43 1
    32   21   26 ar
    33   21   22 ar
    34   22   23 ar
    35   22   44 1
    36   23   24 ar
    37   23   45 1
    38   24   25 ar
    39   24   27 1
    40   25   26 ar
    41   25   46 1
    42   26   47 1
    43   27   28 1
    44   28   29 1
    45   28   48 1
    46   28   49 1
    47   29   30 1
    48   29   50 1
    49   29   51 1
    50   30   35 1
    51   30   31 1
    52   30   63 1
    53   31   32 1
    54   31   52 1
    55   31   53 1
    56   32   33 1
    57   32   54 1
    58   32   55 1
    59   33   34 1
    60   33   56 1
    61   33   57 1
    62   34   35 1
    63   34   58 1
    64   34   59 1
    65   35   60 1
    66   35   61 1
    67   36   62 1
