@<TRIPOS>MOLECULE
CHEMBL95938
   38    41     0     0     0
SMALL
USER_CHARGES

@<TRIPOS>ATOM
      1 C1         -0.0077    1.4010    0.0041 C.ar      1 <0>        -0.1083
      2 C2          1.1841    2.1038   -0.0124 C.ar      1 <0>        -0.1181
      3 C3          2.3868    1.4282   -0.0235 C.ar      1 <0>        -0.0732
      4 C4          2.3996    0.0323   -0.0175 C.ar      1 <0>        -0.0355
      5 C5          1.1937   -0.6706   -0.0003 C.ar      1 <0>        -0.0966
      6 C6         -0.0020    0.0173    0.0101 C.ar      1 <0>        -0.1213
      7 C7          3.6853   -0.6987   -0.0297 C.2       1 <0>        -0.0273
      8 C8          4.2026   -1.5675   -1.0955 C.ar      1 <0>        -0.1417
      9 C9          3.7140   -1.9680   -2.3406 C.ar      1 <0>        -0.0360
     10 C10         4.4539   -2.8084   -3.1219 C.ar      1 <0>        -0.1586
     11 C11         5.6938   -3.2683   -2.6823 C.ar      1 <0>         0.1517
     12 C12         6.1925   -2.8810   -1.4511 C.ar      1 <0>        -0.1438
     13 C13         5.4531   -2.0260   -0.6434 C.ar      1 <0>         0.0896
     14 O1          5.6795   -1.4934    0.5740 O.3       1 <0>        -0.1718
     15 C14         4.6559   -0.7022    0.9588 C.2       1 <0>        -0.0429
     16 C15         4.5817    0.0325    2.2205 C.2       1 <0>         0.4657
     17 O2          3.6509    0.7891    2.4308 O.2       1 <0>        -0.3917
     18 C16         5.6366   -0.1431    3.2410 C.ar      1 <0>        -0.1606
     19 C17         6.7658   -0.9143    2.9574 C.ar      1 <0>        -0.0589
     20 C18         7.7463   -1.0737    3.9137 C.ar      1 <0>        -0.1288
     21 C19         7.6139   -0.4718    5.1534 C.ar      1 <0>        -0.0709
     22 C20         6.4986    0.2931    5.4425 C.ar      1 <0>        -0.1262
     23 C21         5.5114    0.4666    4.4922 C.ar      1 <0>         0.0167
     24 Cl1         4.1152    1.4329    4.8538 Cl        1 <0>        -0.0318
     25 O3          6.4189   -4.1046   -3.4692 O.3       1 <0>        -0.4905
     26 H1         -0.9465    1.9347    0.0168 H         1 <0>         0.1239
     27 H2          1.1727    3.1838   -0.0171 H         1 <0>         0.1254
     28 H3          3.3163    1.9780   -0.0371 H         1 <0>         0.1195
     29 H4          1.1968   -1.7506    0.0040 H         1 <0>         0.1222
     30 H5         -0.9357   -0.5253    0.0234 H         1 <0>         0.1257
     31 H6          2.7533   -1.6144   -2.6846 H         1 <0>         0.1374
     32 H7          4.0764   -3.1185   -4.0850 H         1 <0>         0.1416
     33 H8          7.1543   -3.2428   -1.1185 H         1 <0>         0.1441
     34 H9          6.8708   -1.3853    1.9912 H         1 <0>         0.1522
     35 H10         8.6199   -1.6699    3.6951 H         1 <0>         0.1380
     36 H11         8.3851   -0.6006    5.8984 H         1 <0>         0.1398
     37 H12         6.4014    0.7592    6.4119 H         1 <0>         0.1424
     38 H13         7.0210   -3.6512   -4.0751 H         1 <0>         0.3988
@<TRIPOS>BOND
     1    1    6 ar
     2    1    2 ar
     3    1   26 1
     4    2    3 ar
     5    2   27 1
     6    3    4 ar
     7    3   28 1
     8    4    5 ar
     9    4    7 1
    10    5    6 ar
    11    5   29 1
    12    6   30 1
    13    7   15 2
    14    7    8 1
    15    8   13 ar
    16    8    9 ar
    17    9   10 ar
    18    9   31 1
    19   10   11 ar
    20   10   32 1
    21   11   12 ar
    22   11   25 1
    23   12   13 ar
    24   12   33 1
    25   13   14 1
    26   14   15 1
    27   15   16 1
    28   16   17 2
    29   16   18 1
    30   18   23 ar
    31   18   19 ar
    32   19   20 ar
    33   19   34 1
    34   20   21 ar
    35   20   35 1
    36   21   22 ar
    37   21   36 1
    38   22   23 ar
    39   22   37 1
    40   23   24 1
    41   25   38 1
