@<TRIPOS>MOLECULE
CHEMBL329902
   56    59     0     0     0
SMALL
USER_CHARGES

@<TRIPOS>ATOM
      1 C1         -0.5787    0.1187    0.0828 C.3       1 <0>        -0.0546
      2 N1         -0.5976   -1.3317   -0.1494 N.4       1 <0>        -0.3889
      3 C2          0.0174   -2.0187    0.9941 C.3       1 <0>        -0.0477
      4 C3         -1.9865   -1.7848   -0.3037 C.3       1 <0>        -0.0018
      5 C4         -2.5878   -1.1648   -1.5666 C.3       1 <0>         0.0236
      6 O1         -1.8984   -1.6611   -2.7157 O.3       1 <0>        -0.3274
      7 C5         -2.3121   -1.2063   -3.9277 C.ar      1 <0>         0.1237
      8 C6         -3.3563   -0.2965   -4.0089 C.ar      1 <0>        -0.2032
      9 C7         -3.7746    0.1647   -5.2421 C.ar      1 <0>        -0.0583
     10 C8         -3.1539   -0.2800   -6.3947 C.ar      1 <0>        -0.1036
     11 C9         -2.1133   -1.1870   -6.3165 C.ar      1 <0>        -0.0347
     12 C10        -1.6871   -1.6466   -5.0853 C.ar      1 <0>        -0.1419
     13 C11        -3.6126    0.2244   -7.7387 C.3       1 <0>         0.1492
     14 H1         -4.6224    0.6256   -7.6522 H         1 <0>         0.0968
     15 C12        -2.6603    1.3292   -8.2258 C.3       1 <0>        -0.0670
     16 H2         -2.5799    2.1107   -7.4702 H         1 <0>         0.1398
     17 S1         -3.3765    2.0133   -9.7533 S.3       1 <0>        -0.0801
     18 C13        -3.8929    0.5631  -10.6199 C.ar      1 <0>        -0.1477
     19 C14        -4.2368    0.6658  -11.9614 C.ar      1 <0>        -0.0887
     20 C15        -4.6529   -0.4553  -12.6609 C.ar      1 <0>         0.1002
     21 C16        -4.7266   -1.6798  -12.0132 C.ar      1 <0>        -0.1062
     22 C17        -4.3819   -1.7829  -10.6813 C.ar      1 <0>        -0.1147
     23 C18        -3.9559   -0.6640   -9.9693 C.ar      1 <0>         0.1196
     24 O2         -3.6044   -0.8430   -8.6743 O.3       1 <0>        -0.3057
     25 O3         -4.9876   -0.3559  -13.9751 O.3       1 <0>        -0.4920
     26 C19        -1.2996    0.7469   -8.5096 C.ar      1 <0>        -0.0629
     27 C20        -0.2588    0.9594   -7.6241 C.ar      1 <0>        -0.1111
     28 C21         0.9906    0.4266   -7.8816 C.ar      1 <0>        -0.1022
     29 C22         1.2024   -0.3194   -9.0251 C.ar      1 <0>        -0.1392
     30 C23         0.1602   -0.5339   -9.9149 C.ar      1 <0>         0.1136
     31 C24        -1.0945   -0.0032   -9.6511 C.ar      1 <0>        -0.1326
     32 O4          0.3660   -1.2674  -11.0403 O.3       1 <0>        -0.4951
     33 H3          0.4518    0.4549    0.1973 H         1 <0>         0.1275
     34 H4         -1.0350    0.6285   -0.7657 H         1 <0>         0.1212
     35 H5         -1.1388    0.3490    0.9891 H         1 <0>         0.1249
     36 H6         -0.5427   -1.7885    1.9004 H         1 <0>         0.1233
     37 H7          0.0033   -3.0949    0.8218 H         1 <0>         0.1249
     38 H8          1.0479   -1.6825    1.1086 H         1 <0>         0.1261
     39 H9         -2.0070   -2.8714   -0.3872 H         1 <0>         0.1430
     40 H10        -2.5680   -1.4760    0.5649 H         1 <0>         0.1499
     41 H11        -3.6432   -1.4289   -1.6339 H         1 <0>         0.1099
     42 H12        -2.4868   -0.0804   -1.5226 H         1 <0>         0.0878
     43 H13        -3.8419    0.0506   -3.1089 H         1 <0>         0.1316
     44 H14        -4.5875    0.8729   -5.3059 H         1 <0>         0.1352
     45 H15        -1.6302   -1.5332   -7.2183 H         1 <0>         0.1377
     46 H16        -0.8713   -2.3517   -5.0244 H         1 <0>         0.1352
     47 H17        -4.1794    1.6218  -12.4606 H         1 <0>         0.1405
     48 H18        -5.0546   -2.5555  -12.5535 H         1 <0>         0.1429
     49 H19        -4.4431   -2.7406  -10.1858 H         1 <0>         0.1408
     50 H20        -4.2474   -0.4967  -14.5813 H         1 <0>         0.3954
     51 H21        -0.4223    1.5429   -6.7301 H         1 <0>         0.1219
     52 H22         1.8018    0.5940   -7.1886 H         1 <0>         0.1283
     53 H23         2.1789   -0.7348   -9.2262 H         1 <0>         0.1311
     54 H24        -1.9088   -0.1728  -10.3399 H         1 <0>         0.1358
     55 H25         0.2030   -2.2139  -10.9282 H         1 <0>         0.3919
     56 H26        -0.0791   -1.5448   -0.9884 H         1 <0>         0.4338
@<TRIPOS>BOND
     1    1    2 1
     2    1   33 1
     3    1   34 1
     4    1   35 1
     5    2    3 1
     6    2    4 1
     7    2   56 1
     8    3   36 1
     9    3   37 1
    10    3   38 1
    11    4    5 1
    12    4   39 1
    13    4   40 1
    14    5    6 1
    15    5   41 1
    16    5   42 1
    17    6    7 1
    18    7   12 ar
    19    7    8 ar
    20    8    9 ar
    21    8   43 1
    22    9   10 ar
    23    9   44 1
    24   10   11 ar
    25   10   13 1
    26   11   12 ar
    27   11   45 1
    28   12   46 1
    29   13   14 1
    30   13   24 1
    31   13   15 1
    32   15   16 1
    33   15   17 1
    34   15   26 1
    35   17   18 1
    36   18   23 ar
    37   18   19 ar
    38   19   20 ar
    39   19   47 1
    40   20   21 ar
    41   20   25 1
    42   21   22 ar
    43   21   48 1
    44   22   23 ar
    45   22   49 1
    46   23   24 1
    47   25   50 1
    48   26   31 ar
    49   26   27 ar
    50   27   28 ar
    51   27   51 1
    52   28   29 ar
    53   28   52 1
    54   29   30 ar
    55   29   53 1
    56   30   31 ar
    57   30   32 1
    58   31   54 1
    59   32   55 1
