@<TRIPOS>MOLECULE
CHEMBL198411
   29    31     0     0     0
SMALL
USER_CHARGES

@<TRIPOS>ATOM
      1 C1         -0.0168    1.3904    0.0097 C.ar      1 <0>        -0.0554
      2 C2          1.1684    2.0944    0.0022 C.ar      1 <0>        -0.1510
      3 C3          2.3803    1.4165   -0.0135 C.ar      1 <0>         0.1245
      4 C4          2.4026    0.0279   -0.0212 C.ar      1 <0>        -0.1482
      5 C5          1.2208   -0.6819   -0.0137 C.ar      1 <0>        -0.0782
      6 C6          0.0021   -0.0041    0.0020 C.ar      1 <0>        -0.0686
      7 C7         -1.2702   -0.7640    0.0106 C.ar      1 <0>         0.2077
      8 C8         -1.2310   -2.1672    0.0085 C.ar      1 <0>        -0.1264
      9 C9         -2.3948   -2.8784    0.0168 C.ar      1 <0>        -0.0342
     10 C10        -3.6129   -2.1669    0.0273 C.ar      1 <0>        -0.0713
     11 C11        -4.8453   -2.8366    0.0367 C.ar      1 <0>        -0.1323
     12 C12        -6.0059   -2.1153    0.0472 C.ar      1 <0>         0.1245
     13 C13        -5.9788   -0.7176    0.0482 C.ar      1 <0>        -0.1186
     14 C14        -4.7995   -0.0402    0.0393 C.ar      1 <0>        -0.0706
     15 C15        -3.5849   -0.7500    0.0288 C.ar      1 <0>         0.1341
     16 N1         -2.4140   -0.1062    0.0255 N.ar      1 <0>        -0.4521
     17 O1         -7.2001   -2.7641    0.0562 O.3       1 <0>        -0.4945
     18 Br1        -2.3759   -4.7693    0.0136 Br        1 <0>        -0.0154
     19 O2          3.5464    2.1130   -0.0218 O.3       1 <0>        -0.4986
     20 H1         -0.9590    1.9182    0.0260 H         1 <0>         0.1417
     21 H2          1.1544    3.1743    0.0081 H         1 <0>         0.1350
     22 H3          3.3467   -0.4964   -0.0334 H         1 <0>         0.1358
     23 H4          1.2388   -1.7617   -0.0204 H         1 <0>         0.1331
     24 H5         -0.2817   -2.6822   -0.0000 H         1 <0>         0.1523
     25 H6         -4.8767   -3.9162    0.0353 H         1 <0>         0.1448
     26 H7         -6.9082   -0.1675    0.0558 H         1 <0>         0.1428
     27 H8         -4.7955    1.0398    0.0398 H         1 <0>         0.1475
     28 H9         -7.5384   -2.9530    0.9422 H         1 <0>         0.3966
     29 H10         3.8930    2.3102    0.8591 H         1 <0>         0.3950
@<TRIPOS>BOND
     1    1    6 ar
     2    1    2 ar
     3    1   20 1
     4    2    3 ar
     5    2   21 1
     6    3    4 ar
     7    3   19 1
     8    4    5 ar
     9    4   22 1
    10    5    6 ar
    11    5   23 1
    12    6    7 1
    13    7   16 ar
    14    7    8 ar
    15    8    9 ar
    16    8   24 1
    17    9   10 ar
    18    9   18 1
    19   10   15 ar
    20   10   11 ar
    21   11   12 ar
    22   11   25 1
    23   12   13 ar
    24   12   17 1
    25   13   14 ar
    26   13   26 1
    27   14   15 ar
    28   14   27 1
    29   15   16 ar
    30   17   28 1
    31   19   29 1
