@<TRIPOS>MOLECULE
CHEMBL397344
   50    54     0     0     0
SMALL
USER_CHARGES

@<TRIPOS>ATOM
      1 C1         -0.0187    1.5258    0.0104 C.3       1 <0>        -0.1333
      2 C2          0.0021   -0.0041    0.0020 C.3       1 <0>        -0.0549
      3 C3         -1.4126   -0.5495    0.0535 C.3       1 <0>        -0.1032
      4 C4         -2.0900    0.0497    1.2983 C.3       1 <0>        -0.1154
      5 C5         -1.3111   -0.2840    2.5651 C.3       1 <0>        -0.0665
      6 H1         -1.3077   -1.3689    2.6700 H         1 <0>         0.0664
      7 C6          0.1483    0.1732    2.4718 C.3       1 <0>        -0.0690
      8 H2          0.1871    1.2556    2.3498 H         1 <0>         0.0857
      9 C7          0.7493   -0.5421    1.2528 C.3       1 <0>        -0.0836
     10 H3          0.6121   -1.6208    1.3290 H         1 <0>         0.0752
     11 C8          2.2101   -0.2257    0.9500 C.3       1 <0>        -0.1132
     12 C9          2.3260   -0.2649   -0.5943 C.3       1 <0>        -0.1568
     13 C10         0.8919   -0.5179   -1.1348 C.3       1 <0>         0.1081
     14 H4          0.7256   -1.5817   -1.3041 H         1 <0>         0.0605
     15 O1          0.6638    0.2280   -2.3322 O.3       1 <0>        -0.5589
     16 C11         0.8854   -0.2290    3.7562 C.3       1 <0>        -0.0840
     17 C12         0.2557    0.5638    4.8861 C.2       1 <0>        -0.1286
     18 C13        -1.0161    0.7998    4.8111 C.2       1 <0>        -0.1174
     19 C14        -1.9856    0.2877    3.7918 C.3       1 <0>        -0.0245
     20 C15        -2.8365    1.5286    3.4762 C.3       1 <0>        -0.1175
     21 C16        -2.7344    2.4262    4.7303 C.3       1 <0>        -0.1142
     22 C17        -1.8960    1.6459    5.7194 C.3       1 <0>        -0.1081
     23 H5         -1.3327    2.3005    6.3845 H         1 <0>         0.1059
     24 C18        -2.8208    0.6709    6.4392 C.2       1 <0>         0.3714
     25 O2         -2.8366    0.5783    7.6432 O.2       1 <0>        -0.4522
     26 C19        -3.7198   -0.1754    5.5601 C.3       1 <0>        -0.1687
     27 C20        -2.8686   -0.7777    4.4532 C.3       1 <0>        -0.0984
     28 H6          1.0039    1.9031    0.0027 H         1 <0>         0.0534
     29 H7         -0.5459    1.8868   -0.8726 H         1 <0>         0.0594
     30 H8         -0.5289    1.8773    0.9072 H         1 <0>         0.0605
     31 H9         -1.9569   -0.2536   -0.8433 H         1 <0>         0.0678
     32 H10        -1.3883   -1.6364    0.1318 H         1 <0>         0.0616
     33 H11        -2.1456    1.1327    1.1881 H         1 <0>         0.0728
     34 H12        -3.0997   -0.3520    1.3837 H         1 <0>         0.0633
     35 H13         2.4669    0.7658    1.3229 H         1 <0>         0.0683
     36 H14         2.8600   -0.9781    1.3967 H         1 <0>         0.0652
     37 H15         2.7030    0.6881   -0.9655 H         1 <0>         0.0737
     38 H16         2.9890   -1.0745   -0.8993 H         1 <0>         0.0639
     39 H17         1.2029   -0.0579   -3.0824 H         1 <0>         0.3759
     40 H18         0.7640   -1.2970    3.9370 H         1 <0>         0.0751
     41 H19         1.9437    0.0182    3.6718 H         1 <0>         0.0762
     42 H20         0.8440    0.9171    5.7201 H         1 <0>         0.1200
     43 H21        -2.4366    2.0491    2.6059 H         1 <0>         0.0780
     44 H22        -3.8732    1.2408    3.3013 H         1 <0>         0.0724
     45 H23        -2.2694    3.3785    4.4755 H         1 <0>         0.0794
     46 H24        -3.7236    2.5912    5.1573 H         1 <0>         0.0676
     47 H25        -4.1739   -0.9669    6.1564 H         1 <0>         0.0914
     48 H26        -4.4993    0.4501    5.1251 H         1 <0>         0.1024
     49 H27        -3.5396   -1.2047    3.7079 H         1 <0>         0.0778
     50 H28        -2.2378   -1.5662    4.8635 H         1 <0>         0.0693
@<TRIPOS>BOND
     1    1    2 1
     2    1   28 1
     3    1   29 1
     4    1   30 1
     5    2    9 1
     6    2   13 1
     7    2    3 1
     8    3    4 1
     9    3   31 1
    10    3   32 1
    11    4    5 1
    12    4   33 1
    13    4   34 1
    14    5    6 1
    15    5   19 1
    16    5    7 1
    17    7    8 1
    18    7    9 1
    19    7   16 1
    20    9   10 1
    21    9   11 1
    22   11   12 1
    23   11   35 1
    24   11   36 1
    25   12   13 1
    26   12   37 1
    27   12   38 1
    28   13   14 1
    29   13   15 1
    30   15   39 1
    31   16   17 1
    32   16   40 1
    33   16   41 1
    34   17   18 2
    35   17   42 1
    36   18   22 1
    37   18   19 1
    38   19   27 1
    39   19   20 1
    40   20   21 1
    41   20   43 1
    42   20   44 1
    43   21   22 1
    44   21   45 1
    45   21   46 1
    46   22   23 1
    47   22   24 1
    48   24   25 2
    49   24   26 1
    50   26   27 1
    51   26   47 1
    52   26   48 1
    53   27   49 1
    54   27   50 1
