@<TRIPOS>MOLECULE
CHEMBL316292
   64    68     0     0     0
SMALL
USER_CHARGES

@<TRIPOS>ATOM
      1 C1          0.8978    1.5668    2.7568 C.ar      1 <0>        -0.0925
      2 C2          2.1816    1.7356    3.2444 C.ar      1 <0>        -0.1234
      3 C3          3.2261    1.0082    2.7121 C.ar      1 <0>        -0.0646
      4 C4          2.9854    0.1006    1.6794 C.ar      1 <0>        -0.1342
      5 C5          1.6879   -0.0648    1.1921 C.ar      1 <0>        -0.1039
      6 C6          0.6524    0.6688    1.7333 C.ar      1 <0>        -0.1231
      7 C7          4.1000   -0.6818    1.1038 C.2       1 <0>         0.5661
      8 O1          5.1975   -0.1747    0.9786 O.2       1 <0>        -0.5138
      9 N1          3.8991   -1.9575    0.7179 N.am      1 <0>        -0.6032
     10 C8          2.5781   -2.5957    0.8414 C.3       1 <0>         0.0806
     11 C9          2.0798   -2.9195   -0.5661 C.3       1 <0>        -0.1032
     12 C10         3.1559   -3.5969   -1.3733 C.ar      1 <0>        -0.0488
     13 C11         2.7608   -4.3277   -2.4864 C.ar      1 <0>        -0.1451
     14 C12         3.6995   -4.9667   -3.2777 C.ar      1 <0>         0.1176
     15 C13         5.0463   -4.8752   -2.9565 C.ar      1 <0>        -0.1439
     16 C14         5.4360   -4.1525   -1.8491 C.ar      1 <0>        -0.0849
     17 C15         4.4928   -3.5163   -1.0526 C.ar      1 <0>        -0.1052
     18 C16         4.9863   -2.7635    0.1526 C.3       1 <0>         0.2317
     19 C17         6.1222   -1.8598   -0.2524 C.ar      1 <0>        -0.0635
     20 C18         5.9340   -0.9179   -1.2470 C.ar      1 <0>        -0.0372
     21 C19         6.9738   -0.0886   -1.6203 C.ar      1 <0>        -0.1345
     22 C20         8.2076   -0.2010   -0.9960 C.ar      1 <0>         0.1104
     23 C21         8.3938   -1.1465    0.0020 C.ar      1 <0>        -0.1952
     24 C22         7.3493   -1.9700    0.3753 C.ar      1 <0>        -0.0705
     25 O2          9.2322    0.6134   -1.3618 O.3       1 <0>        -0.3307
     26 C23        10.4741    0.4414   -0.6761 C.3       1 <0>         0.0285
     27 C24        11.4992    1.4387   -1.2198 C.3       1 <0>         0.0040
     28 N2         11.0669    2.8066   -0.9038 N.4       1 <0>        -0.3955
     29 C25        11.1509    3.0449    0.5599 C.3       1 <0>        -0.0102
     30 C26        11.2277    4.5889    0.6638 C.3       1 <0>        -0.1446
     31 C27        12.1027    4.9740   -0.5511 C.3       1 <0>        -0.1448
     32 C28        11.9831    3.7874   -1.5252 C.3       1 <0>        -0.0086
     33 O3          3.3038   -5.6809   -4.3640 O.3       1 <0>        -0.4973
     34 H1          0.0830    2.1354    3.1801 H         1 <0>         0.1303
     35 H2          2.3665    2.4384    4.0433 H         1 <0>         0.1310
     36 H3          4.2278    1.1411    3.0933 H         1 <0>         0.1293
     37 H4          1.4951   -0.7652    0.3930 H         1 <0>         0.1385
     38 H5         -0.3519    0.5418    1.3571 H         1 <0>         0.1323
     39 H6          2.6650   -3.5139    1.4222 H         1 <0>         0.0830
     40 H7          1.8831   -1.9133    1.3308 H         1 <0>         0.1180
     41 H8          1.2146   -3.5790   -0.4972 H         1 <0>         0.0967
     42 H9          1.7863   -1.9954   -1.0640 H         1 <0>         0.0847
     43 H10         1.7125   -4.3977   -2.7366 H         1 <0>         0.1323
     44 H11         5.7855   -5.3678   -3.5708 H         1 <0>         0.1323
     45 H12         6.4841   -4.0805   -1.5987 H         1 <0>         0.1268
     46 H13         5.3379   -3.4739    0.9007 H         1 <0>         0.0943
     47 H14         4.9733   -0.8308   -1.7327 H         1 <0>         0.1193
     48 H15         6.8264    0.6464   -2.3977 H         1 <0>         0.1256
     49 H16         9.3534   -1.2360    0.4895 H         1 <0>         0.1226
     50 H17         7.4924   -2.7032    1.1552 H         1 <0>         0.1242
     51 H18        10.3278    0.6156    0.3899 H         1 <0>         0.0837
     52 H19        10.8375   -0.5744   -0.8318 H         1 <0>         0.1064
     53 H20        12.4695    1.2490   -0.7608 H         1 <0>         0.1473
     54 H21        11.5800    1.3238   -2.3008 H         1 <0>         0.1403
     55 H22        10.2596    2.6694    1.0626 H         1 <0>         0.1338
     56 H23        12.0491    2.5863    0.9735 H         1 <0>         0.1344
     57 H24        10.2349    5.0310    0.5798 H         1 <0>         0.0983
     58 H25        11.7074    4.8894    1.5953 H         1 <0>         0.1170
     59 H26        11.7248    5.8847   -1.0160 H         1 <0>         0.1052
     60 H27        13.1397    5.1078   -0.2433 H         1 <0>         0.1041
     61 H28        12.9622    3.3343   -1.6805 H         1 <0>         0.1310
     62 H29        11.5733    4.1275   -2.4763 H         1 <0>         0.1324
     63 H30         3.2594   -5.1637   -5.1799 H         1 <0>         0.3943
     64 H31        10.1235    2.9575   -1.2283 H         1 <0>         0.4341
@<TRIPOS>BOND
     1    1    6 ar
     2    1    2 ar
     3    1   34 1
     4    2    3 ar
     5    2   35 1
     6    3    4 ar
     7    3   36 1
     8    4    5 ar
     9    4    7 1
    10    5    6 ar
    11    5   37 1
    12    6   38 1
    13    7    8 2
    14    7    9 am
    15    9   18 1
    16    9   10 1
    17   10   11 1
    18   10   39 1
    19   10   40 1
    20   11   12 1
    21   11   41 1
    22   11   42 1
    23   12   17 ar
    24   12   13 ar
    25   13   14 ar
    26   13   43 1
    27   14   15 ar
    28   14   33 1
    29   15   16 ar
    30   15   44 1
    31   16   17 ar
    32   16   45 1
    33   17   18 1
    34   18   19 1
    35   18   46 1
    36   19   24 ar
    37   19   20 ar
    38   20   21 ar
    39   20   47 1
    40   21   22 ar
    41   21   48 1
    42   22   23 ar
    43   22   25 1
    44   23   24 ar
    45   23   49 1
    46   24   50 1
    47   25   26 1
    48   26   27 1
    49   26   51 1
    50   26   52 1
    51   27   28 1
    52   27   53 1
    53   27   54 1
    54   28   32 1
    55   28   29 1
    56   28   64 1
    57   29   30 1
    58   29   55 1
    59   29   56 1
    60   30   31 1
    61   30   57 1
    62   30   58 1
    63   31   32 1
    64   31   59 1
    65   31   60 1
    66   32   61 1
    67   32   62 1
    68   33   63 1
