@<TRIPOS>MOLECULE
CHEMBL100484
   44    48     0     0     0
SMALL
USER_CHARGES

@<TRIPOS>ATOM
      1 C1         -0.0414    1.3334   -0.0343 C.ar      1 <0>        -0.1167
      2 C2          1.1370    2.0760   -0.0403 C.ar      1 <0>        -0.1100
      3 C3          2.3528    1.4605   -0.0417 C.ar      1 <0>        -0.1078
      4 C4          2.4222    0.0610   -0.0371 C.ar      1 <0>        -0.0232
      5 C5          1.2255   -0.6960   -0.0309 C.ar      1 <0>        -0.0503
      6 C6         -0.0112   -0.0277   -0.0297 C.ar      1 <0>        -0.1026
      7 C7          1.2938   -2.0999   -0.0249 C.ar      1 <0>        -0.0944
      8 C8          2.5046   -2.7260   -0.0245 C.ar      1 <0>        -0.1143
      9 C9          3.6890   -2.0008   -0.0304 C.ar      1 <0>        -0.0814
     10 C10         3.6689   -0.6135   -0.0379 C.ar      1 <0>        -0.0209
     11 C11         4.9307    0.1508   -0.0448 C.2       1 <0>        -0.0159
     12 C12         5.6976    0.6113    1.1219 C.ar      1 <0>        -0.1429
     13 C13         5.5200    0.4993    2.5018 C.ar      1 <0>        -0.0332
     14 C14         6.4358    1.0510    3.3512 C.ar      1 <0>        -0.1585
     15 C15         7.5463    1.7248    2.8469 C.ar      1 <0>         0.1545
     16 C16         7.7367    1.8451    1.4816 C.ar      1 <0>        -0.1450
     17 C17         6.8149    1.2893    0.6032 C.ar      1 <0>         0.0924
     18 O1          6.7428    1.2500   -0.7425 O.3       1 <0>        -0.1705
     19 C18         5.6454    0.5805   -1.1540 C.2       1 <0>        -0.0421
     20 C19         5.2790    0.3551   -2.5052 C.2       1 <0>         0.4588
     21 O2          4.3139   -0.3406   -2.7667 O.2       1 <0>        -0.3911
     22 C20         6.0683    0.9643   -3.5965 C.ar      1 <0>        -0.1614
     23 C21         7.2443    1.6602   -3.3078 C.ar      1 <0>        -0.0610
     24 C22         7.9758    2.2262   -4.3305 C.ar      1 <0>        -0.1289
     25 C23         7.5474    2.1067   -5.6415 C.ar      1 <0>        -0.0721
     26 C24         6.3841    1.4193   -5.9360 C.ar      1 <0>        -0.1264
     27 C25         5.6444    0.8419   -4.9224 C.ar      1 <0>         0.0164
     28 Cl1         4.1881   -0.0269   -5.2939 Cl        1 <0>        -0.0320
     29 O3          8.4494    2.2689    3.7029 O.3       1 <0>        -0.4902
     30 H1         -0.9927    1.8447   -0.0287 H         1 <0>         0.1246
     31 H2          1.0864    3.1548   -0.0443 H         1 <0>         0.1232
     32 H3          3.2586    2.0487   -0.0468 H         1 <0>         0.1188
     33 H4         -0.9326   -0.5911   -0.0248 H         1 <0>         0.1290
     34 H5          0.3852   -2.6837   -0.0203 H         1 <0>         0.1292
     35 H6          2.5435   -3.8053   -0.0191 H         1 <0>         0.1279
     36 H7          4.6350   -2.5219   -0.0296 H         1 <0>         0.1234
     37 H8          4.6604   -0.0219    2.8966 H         1 <0>         0.1373
     38 H9          6.2986    0.9649    4.4190 H         1 <0>         0.1420
     39 H10         8.6000    2.3698    1.0997 H         1 <0>         0.1447
     40 H11         7.5798    1.7552   -2.2857 H         1 <0>         0.1527
     41 H12         8.8853    2.7645   -4.1081 H         1 <0>         0.1375
     42 H13         8.1243    2.5528   -6.4381 H         1 <0>         0.1393
     43 H14         6.0558    1.3300   -6.9610 H         1 <0>         0.1418
     44 H15         9.1685    1.6707    3.9484 H         1 <0>         0.3992
@<TRIPOS>BOND
     1    1    6 ar
     2    1    2 ar
     3    1   30 1
     4    2    3 ar
     5    2   31 1
     6    3    4 ar
     7    3   32 1
     8    4   10 ar
     9    4    5 ar
    10    5    6 ar
    11    5    7 ar
    12    6   33 1
    13    7    8 ar
    14    7   34 1
    15    8    9 ar
    16    8   35 1
    17    9   10 ar
    18    9   36 1
    19   10   11 1
    20   11   19 2
    21   11   12 1
    22   12   17 ar
    23   12   13 ar
    24   13   14 ar
    25   13   37 1
    26   14   15 ar
    27   14   38 1
    28   15   16 ar
    29   15   29 1
    30   16   17 ar
    31   16   39 1
    32   17   18 1
    33   18   19 1
    34   19   20 1
    35   20   21 2
    36   20   22 1
    37   22   27 ar
    38   22   23 ar
    39   23   24 ar
    40   23   40 1
    41   24   25 ar
    42   24   41 1
    43   25   26 ar
    44   25   42 1
    45   26   27 ar
    46   26   43 1
    47   27   28 1
    48   29   44 1
