@<TRIPOS>MOLECULE
CHEMBL296875
   60    63     0     0     0
SMALL
USER_CHARGES

@<TRIPOS>ATOM
      1 C1         -3.5696    1.4408   -2.5201 C.3       1 <0>        -0.1475
      2 C2         -2.1249    1.0346   -2.2223 C.3       1 <0>        -0.0198
      3 C3         -1.3289    2.2658   -1.7848 C.3       1 <0>        -0.1507
      4 C4         -2.1089    0.0080   -1.1192 C.2       1 <0>        -0.1418
      5 C5         -1.6505   -1.2705   -1.1899 C.2       1 <0>        -0.1923
      6 C6         -1.7349   -2.0966    0.0180 C.ar      1 <0>        -0.0688
      7 C7         -1.3425   -3.4322    0.2292 C.ar      1 <0>        -0.0645
      8 C8         -1.5113   -4.0204    1.4458 C.ar      1 <0>        -0.1328
      9 C9         -2.0734   -3.3254    2.5128 C.ar      1 <0>         0.1303
     10 C10        -2.4697   -2.0088    2.3376 C.ar      1 <0>        -0.0938
     11 C11        -2.3008   -1.4089    1.1079 C.ar      1 <0>        -0.1318
     12 S1         -2.6460    0.2023    0.4576 S.3       1 <0>         0.1916
     13 O1         -2.2329   -3.9337    3.7180 O.3       1 <0>        -0.4916
     14 C12        -1.0898   -1.8059   -2.4354 C.2       1 <0>         0.4630
     15 O2          0.0883   -1.6401   -2.6933 O.2       1 <0>        -0.4320
     16 C13        -1.9545   -2.5459   -3.3762 C.ar      1 <0>        -0.1839
     17 C14        -3.3217   -2.6758   -3.1171 C.ar      1 <0>        -0.0196
     18 C15        -4.1246   -3.3667   -3.9969 C.ar      1 <0>        -0.1533
     19 C16        -3.5771   -3.9345   -5.1414 C.ar      1 <0>         0.1471
     20 C17        -2.2177   -3.8080   -5.4026 C.ar      1 <0>        -0.2157
     21 C18        -1.4090   -3.1133   -4.5309 C.ar      1 <0>        -0.0186
     22 O3         -4.3718   -4.6147   -6.0061 O.3       1 <0>        -0.3244
     23 C19        -3.7442   -5.1728   -7.1623 C.3       1 <0>         0.0230
     24 C20        -4.7911   -5.8963   -8.0117 C.3       1 <0>        -0.0009
     25 N1         -5.7792   -4.9262   -8.5022 N.4       1 <0>        -0.3846
     26 C21        -6.8667   -5.6394   -9.1829 C.3       1 <0>        -0.0071
     27 C22        -7.9386   -4.6407   -9.6247 C.3       1 <0>        -0.1467
     28 C23        -7.3153   -3.6221  -10.5834 C.3       1 <0>        -0.1391
     29 C24        -6.1352   -2.9371   -9.8882 C.3       1 <0>        -0.1454
     30 C25        -5.1301   -3.9989   -9.4366 C.3       1 <0>        -0.0136
     31 H1         -3.5812    2.1833   -3.3180 H         1 <0>         0.0699
     32 H2         -4.1367    0.5637   -2.8319 H         1 <0>         0.0585
     33 H3         -4.0202    1.8647   -1.6227 H         1 <0>         0.0653
     34 H4         -1.6743    0.6107   -3.1197 H         1 <0>         0.0852
     35 H5         -1.3404    3.0083   -2.5827 H         1 <0>         0.0708
     36 H6         -1.7795    2.6897   -0.8874 H         1 <0>         0.0644
     37 H7         -0.2996    1.9764   -1.5726 H         1 <0>         0.0638
     38 H8         -0.9038   -3.9955   -0.5812 H         1 <0>         0.1252
     39 H9         -1.2035   -5.0461    1.5854 H         1 <0>         0.1375
     40 H10        -2.9075   -1.4580    3.1570 H         1 <0>         0.1426
     41 H11        -1.4757   -3.8356    4.3114 H         1 <0>         0.3985
     42 H12        -3.7478   -2.2352   -2.2279 H         1 <0>         0.1420
     43 H13        -5.1812   -3.4678   -3.7972 H         1 <0>         0.1407
     44 H14        -1.7959   -4.2512   -6.2926 H         1 <0>         0.1353
     45 H15        -0.3538   -3.0110   -4.7372 H         1 <0>         0.1430
     46 H16        -3.2884   -4.3752   -7.7489 H         1 <0>         0.0892
     47 H17        -2.9755   -5.8806   -6.8523 H         1 <0>         0.1124
     48 H18        -4.3023   -6.3771   -8.8591 H         1 <0>         0.1504
     49 H19        -5.2925   -6.6507   -7.4055 H         1 <0>         0.1435
     50 H20        -6.4703   -6.1566  -10.0567 H         1 <0>         0.1295
     51 H21        -7.3071   -6.3662   -8.5003 H         1 <0>         0.1313
     52 H22        -8.7442   -5.1719  -10.1315 H         1 <0>         0.1134
     53 H23        -8.3358   -4.1231   -8.7516 H         1 <0>         0.0881
     54 H24        -6.9637   -4.1329  -11.4798 H         1 <0>         0.0823
     55 H25        -8.0608   -2.8753  -10.8568 H         1 <0>         0.0950
     56 H26        -5.6518   -2.2506  -10.5834 H         1 <0>         0.1126
     57 H27        -6.4950   -2.3841   -9.0206 H         1 <0>         0.0879
     58 H28        -4.2885   -3.5145   -8.9414 H         1 <0>         0.1271
     59 H29        -4.7708   -4.5510  -10.3050 H         1 <0>         0.1308
     60 H30        -6.1558   -4.4079   -7.7227 H         1 <0>         0.4291
@<TRIPOS>BOND
     1    1    2 1
     2    1   31 1
     3    1   32 1
     4    1   33 1
     5    2    3 1
     6    2    4 1
     7    2   34 1
     8    3   35 1
     9    3   36 1
    10    3   37 1
    11    4   12 1
    12    4    5 2
    13    5    6 1
    14    5   14 1
    15    6   11 ar
    16    6    7 ar
    17    7    8 ar
    18    7   38 1
    19    8    9 ar
    20    8   39 1
    21    9   10 ar
    22    9   13 1
    23   10   11 ar
    24   10   40 1
    25   11   12 1
    26   13   41 1
    27   14   15 2
    28   14   16 1
    29   16   21 ar
    30   16   17 ar
    31   17   18 ar
    32   17   42 1
    33   18   19 ar
    34   18   43 1
    35   19   20 ar
    36   19   22 1
    37   20   21 ar
    38   20   44 1
    39   21   45 1
    40   22   23 1
    41   23   24 1
    42   23   46 1
    43   23   47 1
    44   24   25 1
    45   24   48 1
    46   24   49 1
    47   25   30 1
    48   25   26 1
    49   25   60 1
    50   26   27 1
    51   26   50 1
    52   26   51 1
    53   27   28 1
    54   27   52 1
    55   27   53 1
    56   28   29 1
    57   28   54 1
    58   28   55 1
    59   29   30 1
    60   29   56 1
    61   29   57 1
    62   30   58 1
    63   30   59 1
