@<TRIPOS>MOLECULE
CHEMBL391910
   56    59     0     0     0
SMALL
USER_CHARGES

@<TRIPOS>ATOM
      1 C1         -0.0187    1.5258    0.0104 C.3       1 <0>        -0.1646
      2 C2          0.0021   -0.0041    0.0020 C.3       1 <0>         0.1416
      3 H1          0.5123   -0.3556   -0.8948 H         1 <0>         0.0895
      4 C3         -1.4333   -0.5336    0.0129 C.3       1 <0>        -0.1209
      5 C4         -1.4157   -2.0577   -0.1212 C.3       1 <0>        -0.0799
      6 C5         -2.8295   -2.5793   -0.1105 C.ar      1 <0>        -0.0906
      7 C6         -3.4314   -2.9172    1.0875 C.ar      1 <0>        -0.1007
      8 C7         -4.7271   -3.3960    1.1000 C.ar      1 <0>        -0.1428
      9 C8         -5.4247   -3.5373   -0.0909 C.ar      1 <0>         0.0996
     10 C9         -4.8186   -3.1971   -1.2916 C.ar      1 <0>        -0.1424
     11 C10        -3.5245   -2.7138   -1.2982 C.ar      1 <0>        -0.1004
     12 O1         -6.6993   -4.0085   -0.0813 O.3       1 <0>        -0.5005
     13 N1          0.7106   -0.4894    1.1889 N.am      1 <0>        -0.7300
     14 C11         2.0538   -0.5998    1.1737 C.2       1 <0>         0.5130
     15 O2          2.6758   -0.2974    0.1774 O.2       1 <0>        -0.5225
     16 C12         2.7826   -1.0990    2.3946 C.3       1 <0>        -0.0689
     17 C13         4.2638   -1.1281    2.1185 C.2       1 <0>        -0.1334
     18 C14         5.0229   -2.2453    1.5590 C.ar      1 <0>        -0.0895
     19 C15         4.6800   -3.5319    1.1333 C.ar      1 <0>        -0.0694
     20 C16         5.6462   -4.3646    0.6445 C.ar      1 <0>        -0.1444
     21 C17         6.9670   -3.9437    0.5673 C.ar      1 <0>        -0.0976
     22 C18         7.3277   -2.6802    0.9816 C.ar      1 <0>        -0.1298
     23 C19         6.3609   -1.8141    1.4821 C.ar      1 <0>         0.1044
     24 N2          6.4067   -0.5240    1.9625 N.pl3     1 <0>        -0.5872
     25 H2          7.2074    0.0200    2.0248 H         1 <0>         0.4155
     26 C20         5.1454   -0.1209    2.3361 C.2       1 <0>         0.1344
     27 C21         4.8040    1.2060    2.8928 C.ar      1 <0>        -0.0371
     28 C22         3.6792    1.8911    2.4314 C.ar      1 <0>        -0.0949
     29 C23         3.3659    3.1284    2.9552 C.ar      1 <0>        -0.1174
     30 C24         4.1644    3.6903    3.9355 C.ar      1 <0>        -0.1105
     31 C25         5.2809    3.0162    4.3972 C.ar      1 <0>        -0.1178
     32 C26         5.6019    1.7757    3.8858 C.ar      1 <0>        -0.1064
     33 H3          1.0039    1.9031    0.0027 H         1 <0>         0.0607
     34 H4         -0.5459    1.8868   -0.8726 H         1 <0>         0.0656
     35 H5         -0.5289    1.8773    0.9072 H         1 <0>         0.0573
     36 H6         -1.9156   -0.2570    0.9504 H         1 <0>         0.0710
     37 H7         -1.9862   -0.1019   -0.8214 H         1 <0>         0.0807
     38 H8         -0.9334   -2.3344   -1.0587 H         1 <0>         0.0748
     39 H9         -0.8628   -2.4894    0.7131 H         1 <0>         0.0745
     40 H10        -2.8879   -2.8071    2.0143 H         1 <0>         0.1258
     41 H11        -5.1966   -3.6605    2.0359 H         1 <0>         0.1282
     42 H12        -5.3596   -3.3061   -2.2200 H         1 <0>         0.1283
     43 H13        -3.0538   -2.4447   -2.2322 H         1 <0>         0.1265
     44 H14        -7.3727   -3.3195    0.0019 H         1 <0>         0.3909
     45 H15         0.2131   -0.7312    1.9857 H         1 <0>         0.3990
     46 H16         2.5826   -0.4337    3.2345 H         1 <0>         0.0998
     47 H17         2.4385   -2.1044    2.6374 H         1 <0>         0.1015
     48 H18         3.6547   -3.8665    1.1910 H         1 <0>         0.1184
     49 H19         5.3806   -5.3585    0.3157 H         1 <0>         0.1224
     50 H20         7.7196   -4.6138    0.1787 H         1 <0>         0.1255
     51 H21         8.3581   -2.3628    0.9176 H         1 <0>         0.1200
     52 H22         3.0555    1.4539    1.6657 H         1 <0>         0.1308
     53 H23         2.4957    3.6597    2.5990 H         1 <0>         0.1261
     54 H24         3.9152    4.6594    4.3418 H         1 <0>         0.1254
     55 H25         5.9003    3.4604    5.1624 H         1 <0>         0.1267
     56 H26         6.4712    1.2485    4.2502 H         1 <0>         0.1220
@<TRIPOS>BOND
     1    1    2 1
     2    1   33 1
     3    1   34 1
     4    1   35 1
     5    2    3 1
     6    2    4 1
     7    2   13 1
     8    4    5 1
     9    4   36 1
    10    4   37 1
    11    5    6 1
    12    5   38 1
    13    5   39 1
    14    6   11 ar
    15    6    7 ar
    16    7    8 ar
    17    7   40 1
    18    8    9 ar
    19    8   41 1
    20    9   10 ar
    21    9   12 1
    22   10   11 ar
    23   10   42 1
    24   11   43 1
    25   12   44 1
    26   13   14 am
    27   13   45 1
    28   14   15 2
    29   14   16 1
    30   16   17 1
    31   16   46 1
    32   16   47 1
    33   17   26 2
    34   17   18 1
    35   18   23 ar
    36   18   19 ar
    37   19   20 ar
    38   19   48 1
    39   20   21 ar
    40   20   49 1
    41   21   22 ar
    42   21   50 1
    43   22   23 ar
    44   22   51 1
    45   23   24 1
    46   24   25 1
    47   24   26 1
    48   26   27 1
    49   27   32 ar
    50   27   28 ar
    51   28   29 ar
    52   28   52 1
    53   29   30 ar
    54   29   53 1
    55   30   31 ar
    56   30   54 1
    57   31   32 ar
    58   31   55 1
    59   32   56 1
