@<TRIPOS>MOLECULE
CHEMBL181191
   42    44     0     0     0
SMALL
USER_CHARGES

@<TRIPOS>ATOM
      1 C1          0.4116    1.3364   -0.5639 C.3       1 <0>        -0.1228
      2 C2          0.4481   -0.1644   -0.4331 C.2       1 <0>        -0.1094
      3 C3          0.7088   -0.8685   -1.4868 C.2       1 <0>        -0.1476
      4 C4          0.7560   -2.3658   -1.5234 C.3       1 <0>        -0.1124
      5 C5          0.7286   -2.9557   -0.1184 C.3       1 <0>         0.1177
      6 C6         -0.3154   -2.2144    0.7230 C.3       1 <0>        -0.1471
      7 C7          0.1852   -0.7735    0.9203 C.3       1 <0>        -0.0726
      8 H1         -0.5457   -0.1842    1.4739 H         1 <0>         0.0968
      9 C8          1.5303   -0.8426    1.6658 C.3       1 <0>         0.1349
     10 H2          1.4061   -1.3866    2.6021 H         1 <0>         0.0823
     11 O1          2.4608   -1.5318    0.8241 O.3       1 <0>        -0.3504
     12 C9          2.0973   -2.8822    0.5444 C.3       1 <0>         0.1352
     13 C10         3.1425   -3.4899   -0.3932 C.3       1 <0>        -0.1400
     14 C11         2.0676   -3.6831    1.8477 C.3       1 <0>        -0.1741
     15 C12         2.0300    0.5510    1.9476 C.ar      1 <0>        -0.0564
     16 C13         1.5791    1.2335    3.0622 C.ar      1 <0>        -0.1057
     17 C14         2.0347    2.5115    3.3235 C.ar      1 <0>        -0.1161
     18 C15         2.9459    3.1107    2.4670 C.ar      1 <0>         0.0753
     19 C16         3.3984    2.4237    1.3477 C.ar      1 <0>         0.0703
     20 C17         2.9428    1.1424    1.0940 C.ar      1 <0>        -0.1067
     21 F1          4.2862    3.0040    0.5109 F         1 <0>        -0.1317
     22 O2          3.3951    4.3682    2.7220 O.3       1 <0>        -0.4885
     23 O3          0.3332   -4.3262   -0.2040 O.3       1 <0>        -0.5542
     24 H3          1.4221    1.7341   -0.4695 H         1 <0>         0.0693
     25 H4          0.0044    1.6064   -1.5383 H         1 <0>         0.0614
     26 H5         -0.2182    1.7544    0.2215 H         1 <0>         0.0602
     27 H6          0.9064   -0.3386   -2.4069 H         1 <0>         0.1054
     28 H7         -0.1030   -2.7363   -2.0827 H         1 <0>         0.0768
     29 H8          1.6705   -2.6818   -2.0253 H         1 <0>         0.0872
     30 H9         -1.2730   -2.2083    0.2023 H         1 <0>         0.0768
     31 H10        -0.4238   -2.7028    1.6915 H         1 <0>         0.0797
     32 H11         3.2484   -2.8599   -1.2763 H         1 <0>         0.0661
     33 H12         4.1000   -3.5551    0.1236 H         1 <0>         0.0642
     34 H13         2.8237   -4.4877   -0.6948 H         1 <0>         0.0801
     35 H14         1.8216   -4.7224    1.6299 H         1 <0>         0.0796
     36 H15         3.0455   -3.6339    2.3267 H         1 <0>         0.0636
     37 H16         1.3147   -3.2636    2.5149 H         1 <0>         0.0568
     38 H17         0.8694    0.7671    3.7295 H         1 <0>         0.1349
     39 H18         1.6811    3.0437    4.1942 H         1 <0>         0.1415
     40 H19         3.2971    0.6054    0.2266 H         1 <0>         0.1469
     41 H20         4.1910    4.3979    3.2705 H         1 <0>         0.3938
     42 H21        -0.5416   -4.4596   -0.5939 H         1 <0>         0.3789
@<TRIPOS>BOND
     1    1    2 1
     2    1   24 1
     3    1   25 1
     4    1   26 1
     5    2    7 1
     6    2    3 2
     7    3    4 1
     8    3   27 1
     9    4    5 1
    10    4   28 1
    11    4   29 1
    12    5   12 1
    13    5    6 1
    14    5   23 1
    15    6    7 1
    16    6   30 1
    17    6   31 1
    18    7    8 1
    19    7    9 1
    20    9   10 1
    21    9   11 1
    22    9   15 1
    23   11   12 1
    24   12   13 1
    25   12   14 1
    26   13   32 1
    27   13   33 1
    28   13   34 1
    29   14   35 1
    30   14   36 1
    31   14   37 1
    32   15   20 ar
    33   15   16 ar
    34   16   17 ar
    35   16   38 1
    36   17   18 ar
    37   17   39 1
    38   18   19 ar
    39   18   22 1
    40   19   20 ar
    41   19   21 1
    42   20   40 1
    43   22   41 1
    44   23   42 1
