@<TRIPOS>MOLECULE
CHEMBL44643
   61    65     0     0     0
SMALL
USER_CHARGES

@<TRIPOS>ATOM
      1 C1          0.2207    1.1357    0.7731 C.ar      1 <0>        -0.0166
      2 C2          1.3555    1.9143    0.8208 C.ar      1 <0>        -0.1514
      3 C3          2.6085    1.3292    0.6803 C.ar      1 <0>         0.1525
      4 C4          2.7216   -0.0432    0.4912 C.ar      1 <0>        -0.2140
      5 C5          1.5917   -0.8288    0.4423 C.ar      1 <0>        -0.0193
      6 C6          0.3301   -0.2445    0.5832 C.ar      1 <0>        -0.1951
      7 C7         -0.8842   -1.0833    0.5319 C.2       1 <0>         0.4521
      8 O1         -1.9851   -0.5636    0.5640 O.2       1 <0>        -0.4207
      9 C8         -0.7646   -2.5403    0.4424 C.2       1 <0>        -0.1344
     10 C9         -0.8010   -3.3756    1.6446 C.ar      1 <0>        -0.0825
     11 C10        -0.9443   -2.9660    2.9898 C.ar      1 <0>        -0.0544
     12 C11        -0.9584   -3.8769    3.9993 C.ar      1 <0>        -0.1367
     13 C12        -0.8323   -5.2402    3.7467 C.ar      1 <0>         0.1486
     14 C13        -0.6900   -5.6783    2.4398 C.ar      1 <0>        -0.1032
     15 C14        -0.6755   -4.7586    1.4118 C.ar      1 <0>        -0.0946
     16 S1         -0.5178   -4.8967   -0.3499 S.3       1 <0>         0.1226
     17 C15        -0.6191   -3.1716   -0.7846 C.2       1 <0>        -0.0876
     18 C16        -0.5601   -2.5610   -2.1269 C.ar      1 <0>         0.0234
     19 C17        -0.7792   -1.1885   -2.3038 C.ar      1 <0>        -0.1133
     20 C18        -0.7146   -0.6599   -3.5758 C.ar      1 <0>         0.0877
     21 N1         -0.4507   -1.4281   -4.6169 N.ar      1 <0>        -0.1154
     22 O2         -0.3941   -0.8422   -5.9048 O.3       1 <0>        -0.5304
     23 C19        -0.2375   -2.7255   -4.4946 C.ar      1 <0>         0.0866
     24 C20        -0.2776   -3.3365   -3.2590 C.ar      1 <0>        -0.1031
     25 O3         -0.8481   -6.1326    4.7718 O.3       1 <0>        -0.4900
     26 O4          3.7246    2.1001    0.7274 O.3       1 <0>        -0.3219
     27 C21         4.9826    1.4232    0.6927 C.3       1 <0>         0.0226
     28 C22         6.1129    2.4376    0.8779 C.3       1 <0>        -0.0017
     29 N2          6.0236    3.0309    2.2187 N.4       1 <0>        -0.3848
     30 C23         7.0076    4.1133    2.3398 C.3       1 <0>        -0.0071
     31 C24         6.8640    4.7880    3.7056 C.3       1 <0>        -0.1468
     32 C25         7.1036    3.7526    4.8081 C.3       1 <0>        -0.1392
     33 C26         6.1204    2.5924    4.6276 C.3       1 <0>        -0.1453
     34 C27         6.2916    1.9990    3.2276 C.3       1 <0>        -0.0138
     35 H1         -0.7522    1.5904    0.8868 H         1 <0>         0.1511
     36 H2          1.2718    2.9811    0.9672 H         1 <0>         0.1444
     37 H3          3.6970   -0.4940    0.3821 H         1 <0>         0.1367
     38 H4          1.6804   -1.8951    0.2953 H         1 <0>         0.1377
     39 H5         -1.0436   -1.9153    3.2190 H         1 <0>         0.1294
     40 H6         -1.0693   -3.5358    5.0180 H         1 <0>         0.1415
     41 H7         -0.5907   -6.7326    2.2276 H         1 <0>         0.1465
     42 H8         -0.9959   -0.5543   -1.4570 H         1 <0>         0.1590
     43 H9         -0.8824    0.3968   -3.7226 H         1 <0>         0.1892
     44 H10        -0.0246   -3.3155   -5.3738 H         1 <0>         0.1931
     45 H11        -0.0977   -4.3973   -3.1659 H         1 <0>         0.1692
     46 H12        -1.7305   -6.4585    4.9959 H         1 <0>         0.4028
     47 H13         5.0209    0.6862    1.4949 H         1 <0>         0.0897
     48 H14         5.0987    0.9212   -0.2678 H         1 <0>         0.1133
     49 H15         7.0738    1.9354    0.7660 H         1 <0>         0.1511
     50 H16         6.0235    3.2224    0.1266 H         1 <0>         0.1446
     51 H17         8.0126    3.7027    2.2417 H         1 <0>         0.1298
     52 H18         6.8378    4.8478    1.5525 H         1 <0>         0.1317
     53 H19         7.5966    5.5902    3.7942 H         1 <0>         0.1137
     54 H20         5.8594    5.1992    3.8046 H         1 <0>         0.0881
     55 H21         8.1252    3.3784    4.7410 H         1 <0>         0.0824
     56 H22         6.9469    4.2149    5.7827 H         1 <0>         0.0951
     57 H23         6.3216    1.8251    5.3752 H         1 <0>         0.1127
     58 H24         5.1004    2.9580    4.7457 H         1 <0>         0.0878
     59 H25         5.5932    1.1726    3.0958 H         1 <0>         0.1265
     60 H26         7.3118    1.6335    3.1107 H         1 <0>         0.1312
     61 H27         5.0968    3.4044    2.3591 H         1 <0>         0.4287
@<TRIPOS>BOND
     1    1    6 ar
     2    1    2 ar
     3    1   35 1
     4    2    3 ar
     5    2   36 1
     6    3    4 ar
     7    3   26 1
     8    4    5 ar
     9    4   37 1
    10    5    6 ar
    11    5   38 1
    12    6    7 1
    13    7    8 2
    14    7    9 1
    15    9   17 2
    16    9   10 1
    17   10   15 ar
    18   10   11 ar
    19   11   12 ar
    20   11   39 1
    21   12   13 ar
    22   12   40 1
    23   13   14 ar
    24   13   25 1
    25   14   15 ar
    26   14   41 1
    27   15   16 1
    28   16   17 1
    29   17   18 1
    30   18   24 ar
    31   18   19 ar
    32   19   20 ar
    33   19   42 1
    34   20   21 ar
    35   20   43 1
    36   21   22 1
    37   21   23 ar
    38   23   24 ar
    39   23   44 1
    40   24   45 1
    41   25   46 1
    42   26   27 1
    43   27   28 1
    44   27   47 1
    45   27   48 1
    46   28   29 1
    47   28   49 1
    48   28   50 1
    49   29   34 1
    50   29   30 1
    51   29   61 1
    52   30   31 1
    53   30   51 1
    54   30   52 1
    55   31   32 1
    56   31   53 1
    57   31   54 1
    58   32   33 1
    59   32   55 1
    60   32   56 1
    61   33   34 1
    62   33   57 1
    63   33   58 1
    64   34   59 1
    65   34   60 1
