@<TRIPOS>MOLECULE
CHEMBL371012
   37    40     0     0     0
SMALL
USER_CHARGES

@<TRIPOS>ATOM
      1 C1          0.1782    1.6796   -0.4270 C.ar      1 <0>        -0.1092
      2 C2          0.7699    1.1761   -1.5721 C.ar      1 <0>        -0.1171
      3 C3          1.9259    0.4289   -1.4835 C.ar      1 <0>        -0.0844
      4 C4          2.4992    0.1809   -0.2342 C.ar      1 <0>        -0.0371
      5 C5          1.8965    0.6923    0.9174 C.ar      1 <0>        -0.1060
      6 C6          0.7407    1.4379    0.8139 C.ar      1 <0>        -0.1181
      7 C7          3.7361   -0.6184   -0.1314 C.2       1 <0>         0.1350
      8 C8          3.9688   -1.8164   -0.7728 C.2       1 <0>        -0.1197
      9 C9          5.3190   -2.2447   -0.3804 C.ar      1 <0>        -0.0897
     10 C10         6.1071   -3.3536   -0.6925 C.ar      1 <0>        -0.0687
     11 C11         7.3572   -3.4719   -0.1533 C.ar      1 <0>        -0.1426
     12 C12         7.8495   -2.4969    0.7032 C.ar      1 <0>        -0.0958
     13 C13         7.0882   -1.3945    1.0244 C.ar      1 <0>        -0.1298
     14 C14         5.8120   -1.2537    0.4865 C.ar      1 <0>         0.1018
     15 N1          4.8413   -0.2834    0.6145 N.pl3     1 <0>        -0.5842
     16 H1          4.9250    0.5181    1.1543 H         1 <0>         0.4171
     17 C15         3.0411   -2.5310   -1.6781 C.ar      1 <0>        -0.0121
     18 C16         1.8472   -3.0572   -1.1830 C.ar      1 <0>        -0.0854
     19 C17         0.9856   -3.7223   -2.0295 C.ar      1 <0>        -0.1423
     20 C18         1.3046   -3.8688   -3.3727 C.ar      1 <0>         0.1030
     21 C19         2.4914   -3.3467   -3.8690 C.ar      1 <0>        -0.1433
     22 C20         3.3555   -2.6753   -3.0300 C.ar      1 <0>        -0.0916
     23 O1          0.4529   -4.5254   -4.2039 O.3       1 <0>        -0.5004
     24 H2         -0.7244    2.2678   -0.5026 H         1 <0>         0.1255
     25 H3          0.3253    1.3683   -2.5374 H         1 <0>         0.1273
     26 H4          2.3865    0.0362   -2.3780 H         1 <0>         0.1268
     27 H5          2.3343    0.5040    1.8866 H         1 <0>         0.1217
     28 H6          0.2736    1.8339    1.7035 H         1 <0>         0.1266
     29 H7          5.7299   -4.1161   -1.3580 H         1 <0>         0.1223
     30 H8          7.9663   -4.3304   -0.3949 H         1 <0>         0.1242
     31 H9          8.8391   -2.6037    1.1223 H         1 <0>         0.1268
     32 H10         7.4806   -0.6413    1.6915 H         1 <0>         0.1213
     33 H11         1.5986   -2.9439   -0.1381 H         1 <0>         0.1238
     34 H12         0.0616   -4.1302   -1.6470 H         1 <0>         0.1283
     35 H13         2.7361   -3.4627   -4.9145 H         1 <0>         0.1292
     36 H14         4.2763   -2.2652   -3.4178 H         1 <0>         0.1268
     37 H15        -0.2041   -3.9544   -4.6250 H         1 <0>         0.3901
@<TRIPOS>BOND
     1    1    6 ar
     2    1    2 ar
     3    1   24 1
     4    2    3 ar
     5    2   25 1
     6    3    4 ar
     7    3   26 1
     8    4    5 ar
     9    4    7 1
    10    5    6 ar
    11    5   27 1
    12    6   28 1
    13    7   15 1
    14    7    8 2
    15    8    9 1
    16    8   17 1
    17    9   14 ar
    18    9   10 ar
    19   10   11 ar
    20   10   29 1
    21   11   12 ar
    22   11   30 1
    23   12   13 ar
    24   12   31 1
    25   13   14 ar
    26   13   32 1
    27   14   15 1
    28   15   16 1
    29   17   22 ar
    30   17   18 ar
    31   18   19 ar
    32   18   33 1
    33   19   20 ar
    34   19   34 1
    35   20   21 ar
    36   20   23 1
    37   21   22 ar
    38   21   35 1
    39   22   36 1
    40   23   37 1
