@<TRIPOS>MOLECULE
CHEMBL313941
   66    70     0     0     0
SMALL
USER_CHARGES

@<TRIPOS>ATOM
      1 C1         -0.0125    1.4506   -0.2146 C.ar      1 <0>        -0.0984
      2 C2          1.1707    2.1627   -0.1791 C.ar      1 <0>        -0.1485
      3 C3          2.3839    1.4940   -0.2558 C.ar      1 <0>         0.1098
      4 C4          2.4054    0.1114   -0.3680 C.ar      1 <0>        -0.1428
      5 C5          1.2193   -0.5960   -0.4031 C.ar      1 <0>        -0.0750
      6 C6          0.0116    0.0727   -0.3266 C.ar      1 <0>        -0.0998
      7 C7         -1.2807   -0.7016   -0.3647 C.3       1 <0>        -0.0694
      8 C8         -1.7454   -0.8474   -1.8151 C.3       1 <0>        -0.0999
      9 H1         -1.8183    0.1346   -2.2825 H         1 <0>         0.1319
     10 C9         -3.1111   -1.5528   -1.8603 C.3       1 <0>         0.1448
     11 H2         -3.3775   -1.7655   -2.8956 H         1 <0>         0.0934
     12 O1         -3.0294   -2.7683   -1.1318 O.3       1 <0>        -0.3098
     13 C10        -2.1535   -3.7457   -1.4634 C.ar      1 <0>         0.1184
     14 C11        -2.4550   -5.0450   -1.0619 C.ar      1 <0>        -0.1124
     15 C12        -1.5995   -6.0874   -1.3529 C.ar      1 <0>        -0.1092
     16 C13        -0.4236   -5.8522   -2.0503 C.ar      1 <0>         0.0989
     17 C14        -0.1158   -4.5649   -2.4595 C.ar      1 <0>        -0.0920
     18 C15        -0.9804   -3.5166   -2.1737 C.ar      1 <0>        -0.1416
     19 S1         -0.5750   -1.8905   -2.7405 S.3       1 <0>        -0.0872
     20 O2          0.4223   -6.8793   -2.3304 O.3       1 <0>        -0.4922
     21 C16        -4.1588   -0.6626   -1.2429 C.ar      1 <0>        -0.1021
     22 C17        -4.2766   -0.5869    0.1326 C.ar      1 <0>        -0.0487
     23 C18        -5.2365    0.2280    0.7010 C.ar      1 <0>        -0.1414
     24 C19        -6.0823    0.9710   -0.1096 C.ar      1 <0>         0.1233
     25 C20        -5.9618    0.8936   -1.4895 C.ar      1 <0>        -0.2008
     26 C21        -4.9969    0.0812   -2.0529 C.ar      1 <0>        -0.0584
     27 O3         -7.0277    1.7730    0.4471 O.3       1 <0>        -0.3270
     28 C22        -7.8634    2.5090   -0.4485 C.3       1 <0>         0.0249
     29 C23        -8.8580    3.3485    0.3557 C.3       1 <0>        -0.0010
     30 N1         -8.1273    4.3423    1.1535 N.4       1 <0>        -0.3842
     31 C24        -9.0653    5.0414    2.0399 C.3       1 <0>        -0.0072
     32 C25        -8.2978    6.0206    2.9307 C.3       1 <0>        -0.1467
     33 C26        -7.5692    7.0398    2.0501 C.3       1 <0>        -0.1391
     34 C27        -6.6488    6.2949    1.0789 C.3       1 <0>        -0.1454
     35 C28        -7.4774    5.3056    0.2567 C.3       1 <0>        -0.0131
     36 O4          3.5493    2.1923   -0.2214 O.3       1 <0>        -0.4996
     37 H3         -0.9571    1.9703   -0.1505 H         1 <0>         0.1205
     38 H4          1.1514    3.2390   -0.0921 H         1 <0>         0.1273
     39 H5          3.3485   -0.4113   -0.4282 H         1 <0>         0.1309
     40 H6          1.2355   -1.6724   -0.4904 H         1 <0>         0.1283
     41 H7         -1.1250   -1.6899    0.0680 H         1 <0>         0.0817
     42 H8         -2.0401   -0.1696    0.2084 H         1 <0>         0.0883
     43 H9         -3.3676   -5.2383   -0.5176 H         1 <0>         0.1398
     44 H10        -1.8459   -7.0902   -1.0363 H         1 <0>         0.1417
     45 H11         0.7987   -4.3764   -3.0023 H         1 <0>         0.1391
     46 H12         0.2432   -7.3176   -3.1735 H         1 <0>         0.3942
     47 H13        -3.6179   -1.1655    0.7633 H         1 <0>         0.1428
     48 H14        -5.3286    0.2863    1.7755 H         1 <0>         0.1370
     49 H15        -6.6191    1.4710   -2.1227 H         1 <0>         0.1320
     50 H16        -4.8997    0.0239   -3.1270 H         1 <0>         0.1352
     51 H17        -7.2476    3.1653   -1.0635 H         1 <0>         0.0872
     52 H18        -8.4079    1.8158   -1.0897 H         1 <0>         0.1104
     53 H19        -9.5377    3.8590   -0.3266 H         1 <0>         0.1494
     54 H20        -9.4290    2.6988    1.0189 H         1 <0>         0.1430
     55 H21        -9.7917    5.5896    1.4399 H         1 <0>         0.1293
     56 H22        -9.5854    4.3145    2.6638 H         1 <0>         0.1312
     57 H23        -8.9962    6.5400    3.5869 H         1 <0>         0.1133
     58 H24        -7.5713    5.4735    3.5315 H         1 <0>         0.0880
     59 H25        -8.2984    7.6223    1.4870 H         1 <0>         0.0822
     60 H26        -6.9755    7.7050    2.6772 H         1 <0>         0.0949
     61 H27        -6.1685    7.0104    0.4113 H         1 <0>         0.1124
     62 H28        -5.8880    5.7534    1.6412 H         1 <0>         0.0878
     63 H29        -6.8252    4.7736   -0.4360 H         1 <0>         0.1270
     64 H30        -8.2376    5.8481   -0.3054 H         1 <0>         0.1304
     65 H31         3.9031    2.3235    0.6689 H         1 <0>         0.3930
     66 H32        -7.4262    3.8760    1.7096 H         1 <0>         0.4293
@<TRIPOS>BOND
     1    1    6 ar
     2    1    2 ar
     3    1   37 1
     4    2    3 ar
     5    2   38 1
     6    3    4 ar
     7    3   36 1
     8    4    5 ar
     9    4   39 1
    10    5    6 ar
    11    5   40 1
    12    6    7 1
    13    7    8 1
    14    7   41 1
    15    7   42 1
    16    8    9 1
    17    8   19 1
    18    8   10 1
    19   10   11 1
    20   10   12 1
    21   10   21 1
    22   12   13 1
    23   13   18 ar
    24   13   14 ar
    25   14   15 ar
    26   14   43 1
    27   15   16 ar
    28   15   44 1
    29   16   17 ar
    30   16   20 1
    31   17   18 ar
    32   17   45 1
    33   18   19 1
    34   20   46 1
    35   21   26 ar
    36   21   22 ar
    37   22   23 ar
    38   22   47 1
    39   23   24 ar
    40   23   48 1
    41   24   25 ar
    42   24   27 1
    43   25   26 ar
    44   25   49 1
    45   26   50 1
    46   27   28 1
    47   28   29 1
    48   28   51 1
    49   28   52 1
    50   29   30 1
    51   29   53 1
    52   29   54 1
    53   30   35 1
    54   30   31 1
    55   30   66 1
    56   31   32 1
    57   31   55 1
    58   31   56 1
    59   32   33 1
    60   32   57 1
    61   32   58 1
    62   33   34 1
    63   33   59 1
    64   33   60 1
    65   34   35 1
    66   34   61 1
    67   34   62 1
    68   35   63 1
    69   35   64 1
    70   36   65 1
