@<TRIPOS>MOLECULE
CHEMBL441366
   46    49     0     0     0
SMALL
USER_CHARGES

@<TRIPOS>ATOM
      1 C1          0.1893    1.5089    0.2860 C.3       1 <0>        -0.1543
      2 C2          0.2130   -0.0208    0.2683 C.3       1 <0>        -0.1251
      3 C3          0.7984   -0.5064   -1.0593 C.3       1 <0>        -0.1232
      4 C4          0.8220   -2.0362   -1.0770 C.3       1 <0>        -0.0993
      5 C5          1.4075   -2.5218   -2.4045 C.3       1 <0>        -0.0377
      6 C6          2.8357   -2.0095   -2.6103 C.3       1 <0>        -0.1061
      7 C7          3.7330   -2.6304   -1.5345 C.3       1 <0>        -0.1691
      8 C8          3.6551   -4.1321   -1.5827 C.2       1 <0>         0.3929
      9 O1          4.6025   -4.7920   -1.2056 O.2       1 <0>        -0.4589
     10 C9          2.4983   -4.7865   -2.0588 C.2       1 <0>        -0.1816
     11 C10         1.4550   -4.0400   -2.4773 C.2       1 <0>         0.0183
     12 C11         0.1999   -4.4638   -3.1067 C.ar      1 <0>        -0.0999
     13 C12        -0.4762   -5.6997   -3.0804 C.ar      1 <0>        -0.0342
     14 C13        -1.6143   -5.8838   -3.8024 C.ar      1 <0>        -0.1292
     15 C14        -2.1331   -4.8445   -4.5725 C.ar      1 <0>         0.1094
     16 C15        -1.4965   -3.5896   -4.5856 C.ar      1 <0>        -0.0119
     17 C16        -0.3337   -3.4001   -3.8342 C.ar      1 <0>         0.0205
     18 C17         0.4994   -2.1581   -3.5923 C.3       1 <0>        -0.0771
     19 N1         -2.2144   -2.7755   -5.3962 N.2       1 <0>        -0.2049
     20 N2         -3.2217   -3.4110   -5.8822 N.2       1 <0>         0.0023
     21 N3         -3.2231   -4.7272   -5.3983 N.pl3     1 <0>        -0.4954
     22 H1         -3.8690   -5.4202   -5.6067 H         1 <0>         0.4507
     23 C18         2.4300   -6.2914   -2.0993 C.3       1 <0>        -0.0791
     24 C19         1.9608   -6.8174   -0.7413 C.3       1 <0>        -0.1478
     25 H2          1.2049    1.8893    0.1760 H         1 <0>         0.0543
     26 H3         -0.4259    1.8724   -0.5370 H         1 <0>         0.0542
     27 H4         -0.2277    1.8549    1.2318 H         1 <0>         0.0537
     28 H5          0.8283   -0.3843    1.0913 H         1 <0>         0.0614
     29 H6         -0.8026   -0.4012    0.3783 H         1 <0>         0.0607
     30 H7          0.1831   -0.1430   -1.8823 H         1 <0>         0.0676
     31 H8          1.8139   -0.1261   -1.1693 H         1 <0>         0.0693
     32 H9          1.4373   -2.3996   -0.2540 H         1 <0>         0.0716
     33 H10        -0.1935   -2.4165   -0.9670 H         1 <0>         0.0702
     34 H11         3.1914   -2.3026   -3.5980 H         1 <0>         0.0759
     35 H12         2.8521   -0.9234   -2.5190 H         1 <0>         0.0880
     36 H13         4.7638   -2.3184   -1.7023 H         1 <0>         0.0977
     37 H14         3.4089   -2.2849   -0.5528 H         1 <0>         0.1035
     38 H15        -0.0871   -6.5091   -2.4805 H         1 <0>         0.1453
     39 H16        -2.1180   -6.8389   -3.7784 H         1 <0>         0.1408
     40 H17        -0.1418   -1.3148   -3.3358 H         1 <0>         0.0997
     41 H18         1.0996   -1.9262   -4.4721 H         1 <0>         0.0997
     42 H19         1.7271   -6.6025   -2.8721 H         1 <0>         0.0741
     43 H20         3.4179   -6.6941   -2.3233 H         1 <0>         0.0787
     44 H21         2.6637   -6.5063    0.0314 H         1 <0>         0.0589
     45 H22         0.9730   -6.4148   -0.5173 H         1 <0>         0.0542
     46 H23         1.9114   -7.9059   -0.7706 H         1 <0>         0.0612
@<TRIPOS>BOND
     1    1    2 1
     2    1   25 1
     3    1   26 1
     4    1   27 1
     5    2    3 1
     6    2   28 1
     7    2   29 1
     8    3    4 1
     9    3   30 1
    10    3   31 1
    11    4    5 1
    12    4   32 1
    13    4   33 1
    14    5   11 1
    15    5   18 1
    16    5    6 1
    17    6    7 1
    18    6   34 1
    19    6   35 1
    20    7    8 1
    21    7   36 1
    22    7   37 1
    23    8    9 2
    24    8   10 1
    25   10   11 2
    26   10   23 1
    27   11   12 1
    28   12   17 ar
    29   12   13 ar
    30   13   14 ar
    31   13   38 1
    32   14   15 ar
    33   14   39 1
    34   15   21 1
    35   15   16 ar
    36   16   17 ar
    37   16   19 1
    38   17   18 1
    39   18   40 1
    40   18   41 1
    41   19   20 2
    42   20   21 1
    43   21   22 1
    44   23   24 1
    45   23   42 1
    46   23   43 1
    47   24   44 1
    48   24   45 1
    49   24   46 1
