@<TRIPOS>MOLECULE
CHEMBL472468
   62    66     0     0     0
SMALL
USER_CHARGES

@<TRIPOS>ATOM
      1 C1         -0.0169    1.3917    0.0097 C.ar      1 <0>        -0.0926
      2 C2          1.1685    2.0953    0.0022 C.ar      1 <0>        -0.1407
      3 C3          2.3804    1.4173   -0.0131 C.ar      1 <0>         0.1096
      4 C4          2.4034    0.0288   -0.0207 C.ar      1 <0>        -0.1443
      5 C5          1.2222   -0.6819   -0.0137 C.ar      1 <0>        -0.0783
      6 C6          0.0021   -0.0041    0.0020 C.ar      1 <0>        -0.0480
      7 C7         -1.2679   -0.7631    0.0106 C.2       1 <0>        -0.0178
      8 C8         -1.6142   -1.5428   -1.0534 C.2       1 <0>        -0.0635
      9 C9         -2.9456   -2.2504   -1.0420 C.3       1 <0>        -0.1212
     10 C10        -2.9257   -3.4232   -0.0685 C.3       1 <0>         0.0728
     11 O1         -2.3243   -3.0636    1.1680 O.3       1 <0>        -0.3218
     12 C11        -2.6835   -1.8752    1.7180 C.ar      1 <0>         0.1439
     13 C12        -2.1755   -0.6913    1.1746 C.ar      1 <0>        -0.0883
     14 C13        -2.5324    0.5324    1.7334 C.ar      1 <0>        -0.0623
     15 C14        -3.3827    0.5660    2.8207 C.ar      1 <0>        -0.1577
     16 C15        -3.8802   -0.6123    3.3554 C.ar      1 <0>         0.1271
     17 C16        -3.5372   -1.8235    2.8039 C.ar      1 <0>        -0.1689
     18 F1         -4.7114   -0.5683    4.4195 F         1 <0>        -0.1301
     19 C17        -0.7017   -1.6911   -2.1964 C.ar      1 <0>        -0.0578
     20 C18        -0.3896   -0.5845   -2.9940 C.ar      1 <0>        -0.0564
     21 C19         0.4661   -0.7291   -4.0640 C.ar      1 <0>        -0.1368
     22 C20         1.0187   -1.9707   -4.3517 C.ar      1 <0>         0.1127
     23 C21         0.7120   -3.0728   -3.5636 C.ar      1 <0>        -0.1990
     24 C22        -0.1376   -2.9382   -2.4874 C.ar      1 <0>        -0.0655
     25 O2          1.8621   -2.1078   -5.4082 O.3       1 <0>        -0.3251
     26 C23         2.3949   -3.4118   -5.6480 C.3       1 <0>         0.0280
     27 C24         3.3159   -3.3698   -6.8691 C.3       1 <0>         0.0010
     28 N1          4.4794   -2.5225   -6.5759 N.4       1 <0>        -0.3912
     29 C25         4.0418   -1.1221   -6.3932 C.3       1 <0>        -0.0014
     30 C26         5.1810   -0.2687   -7.0044 C.3       1 <0>        -0.1457
     31 C27         5.5997   -1.1319   -8.2236 C.3       1 <0>        -0.1419
     32 C28         5.4280   -2.5746   -7.7035 C.3       1 <0>        -0.0134
     33 O3          3.5466    2.1144   -0.0209 O.3       1 <0>        -0.5023
     34 H1         -0.9589    1.9196    0.0260 H         1 <0>         0.1294
     35 H2          1.1547    3.1752    0.0077 H         1 <0>         0.1325
     36 H3          3.3478   -0.4949   -0.0326 H         1 <0>         0.1268
     37 H4          1.2409   -1.7617   -0.0204 H         1 <0>         0.1241
     38 H5         -3.7229   -1.5478   -0.7415 H         1 <0>         0.0851
     39 H6         -3.1644   -2.6194   -2.0440 H         1 <0>         0.0927
     40 H7         -3.9488   -3.7512    0.1150 H         1 <0>         0.0662
     41 H8         -2.3637   -4.2449   -0.5123 H         1 <0>         0.1022
     42 H9         -2.1462    1.4516    1.3183 H         1 <0>         0.1401
     43 H10        -3.6612    1.5140    3.2566 H         1 <0>         0.1441
     44 H11        -3.9291   -2.7362    3.2279 H         1 <0>         0.1469
     45 H12        -0.8190    0.3811   -2.7713 H         1 <0>         0.1331
     46 H13         0.7073    0.1242   -4.6804 H         1 <0>         0.1322
     47 H14         1.1439   -4.0359   -3.7922 H         1 <0>         0.1281
     48 H15        -0.3716   -3.7946   -1.8725 H         1 <0>         0.1308
     49 H16         2.9619   -3.7386   -4.7763 H         1 <0>         0.0855
     50 H17         1.5782   -4.1097   -5.8327 H         1 <0>         0.1087
     51 H18         3.6519   -4.3794   -7.1056 H         1 <0>         0.1488
     52 H19         2.7725   -2.9591   -7.7200 H         1 <0>         0.1402
     53 H20         3.1071   -0.9442   -6.9251 H         1 <0>         0.1375
     54 H21         3.9251   -0.8962   -5.3333 H         1 <0>         0.1343
     55 H22         4.8106    0.7053   -7.3242 H         1 <0>         0.1162
     56 H23         6.0068   -0.1591   -6.3015 H         1 <0>         0.0970
     57 H24         4.9402   -0.9468   -9.0715 H         1 <0>         0.0984
     58 H25         6.6384   -0.9403   -8.4929 H         1 <0>         0.1124
     59 H26         6.3879   -2.9627   -7.3629 H         1 <0>         0.1324
     60 H27         5.0287   -3.2090   -8.4948 H         1 <0>         0.1316
     61 H28         3.8928    2.3117    0.8602 H         1 <0>         0.3951
     62 H29         4.9333   -2.8467   -5.7351 H         1 <0>         0.4244
@<TRIPOS>BOND
     1    1    6 ar
     2    1    2 ar
     3    1   34 1
     4    2    3 ar
     5    2   35 1
     6    3    4 ar
     7    3   33 1
     8    4    5 ar
     9    4   36 1
    10    5    6 ar
    11    5   37 1
    12    6    7 1
    13    7   13 1
    14    7    8 2
    15    8    9 1
    16    8   19 1
    17    9   10 1
    18    9   38 1
    19    9   39 1
    20   10   11 1
    21   10   40 1
    22   10   41 1
    23   11   12 1
    24   12   17 ar
    25   12   13 ar
    26   13   14 ar
    27   14   15 ar
    28   14   42 1
    29   15   16 ar
    30   15   43 1
    31   16   17 ar
    32   16   18 1
    33   17   44 1
    34   19   24 ar
    35   19   20 ar
    36   20   21 ar
    37   20   45 1
    38   21   22 ar
    39   21   46 1
    40   22   23 ar
    41   22   25 1
    42   23   24 ar
    43   23   47 1
    44   24   48 1
    45   25   26 1
    46   26   27 1
    47   26   49 1
    48   26   50 1
    49   27   28 1
    50   27   51 1
    51   27   52 1
    52   28   32 1
    53   28   29 1
    54   28   62 1
    55   29   30 1
    56   29   53 1
    57   29   54 1
    58   30   31 1
    59   30   55 1
    60   30   56 1
    61   31   32 1
    62   31   57 1
    63   31   58 1
    64   32   59 1
    65   32   60 1
    66   33   61 1
