@<TRIPOS>MOLECULE
CHEMBL117286
   45    48     0     0     0
SMALL
USER_CHARGES

@<TRIPOS>ATOM
      1 C1         -0.0168    1.3895    0.0097 C.ar      1 <0>        -0.0924
      2 C2          1.1688    2.0938    0.0021 C.ar      1 <0>        -0.1412
      3 C3          2.3803    1.4161   -0.0135 C.ar      1 <0>         0.1085
      4 C4          2.4023    0.0280   -0.0217 C.ar      1 <0>        -0.1413
      5 C5          1.2198   -0.6817   -0.0142 C.ar      1 <0>        -0.0925
      6 C6          0.0021   -0.0041    0.0020 C.ar      1 <0>        -0.0551
      7 C7         -1.2719   -0.7648    0.0106 C.ar      1 <0>        -0.0342
      8 C8         -2.4876   -0.0866    0.0206 C.ar      1 <0>        -0.1005
      9 C9         -3.6829   -0.8003    0.0286 C.ar      1 <0>        -0.0342
     10 C10        -3.6624   -2.1923    0.0262 C.ar      1 <0>        -0.1005
     11 C11        -2.4467   -2.8706    0.0153 C.ar      1 <0>        -0.0342
     12 C12        -1.2515   -2.1568    0.0029 C.ar      1 <0>        -0.1005
     13 C13        -2.4249   -4.3543    0.0133 C.ar      1 <0>        -0.0551
     14 C14        -3.6207   -5.0702    0.0166 C.ar      1 <0>        -0.0925
     15 C15        -3.5973   -6.4491    0.0147 C.ar      1 <0>        -0.1413
     16 C16        -2.3842   -7.1241    0.0101 C.ar      1 <0>         0.1085
     17 C17        -1.1914   -6.4137    0.0073 C.ar      1 <0>        -0.1412
     18 C18        -1.2086   -5.0347    0.0024 C.ar      1 <0>        -0.0925
     19 O1         -2.3642   -8.4827    0.0088 O.3       1 <0>        -0.4992
     20 C19        -4.9787   -0.0774    0.0402 C.ar      1 <0>        -0.0550
     21 C20        -5.0008    1.3161    0.0373 C.ar      1 <0>        -0.0925
     22 C21        -6.2066    1.9853    0.0482 C.ar      1 <0>        -0.1413
     23 C22        -7.3977    1.2722    0.0624 C.ar      1 <0>         0.1086
     24 C23        -7.3788   -0.1159    0.0658 C.ar      1 <0>        -0.1412
     25 C24        -6.1760   -0.7906    0.0483 C.ar      1 <0>        -0.0925
     26 O2         -8.5842    1.9342    0.0735 O.3       1 <0>        -0.4992
     27 O3          3.5469    2.1127   -0.0214 O.3       1 <0>        -0.4992
     28 H1         -0.9590    1.9172    0.0260 H         1 <0>         0.1299
     29 H2          1.1548    3.1737    0.0081 H         1 <0>         0.1323
     30 H3          3.3462   -0.4966   -0.0342 H         1 <0>         0.1323
     31 H4          1.2375   -1.7615   -0.0212 H         1 <0>         0.1299
     32 H5         -2.5035    0.9933    0.0224 H         1 <0>         0.1306
     33 H6         -4.5897   -2.7460    0.0332 H         1 <0>         0.1306
     34 H7         -0.3084   -2.6830   -0.0093 H         1 <0>         0.1306
     35 H8         -4.5647   -4.5456    0.0209 H         1 <0>         0.1299
     36 H9         -4.5236   -7.0043    0.0173 H         1 <0>         0.1323
     37 H10        -0.2492   -6.9415    0.0045 H         1 <0>         0.1323
     38 H11        -0.2805   -4.4825   -0.0046 H         1 <0>         0.1299
     39 H12        -2.3613   -8.8751   -0.8750 H         1 <0>         0.3928
     40 H13        -4.0745    1.8714    0.0269 H         1 <0>         0.1299
     41 H14        -6.2243    3.0652    0.0459 H         1 <0>         0.1323
     42 H15        -8.3069   -0.6681    0.0776 H         1 <0>         0.1323
     43 H16        -6.1620   -1.8705    0.0460 H         1 <0>         0.1299
     44 H17        -8.9370    2.1239   -0.8066 H         1 <0>         0.3928
     45 H18         3.8933    2.3096    0.8597 H         1 <0>         0.3928
@<TRIPOS>BOND
     1    1    6 ar
     2    1    2 ar
     3    1   28 1
     4    2    3 ar
     5    2   29 1
     6    3    4 ar
     7    3   27 1
     8    4    5 ar
     9    4   30 1
    10    5    6 ar
    11    5   31 1
    12    6    7 1
    13    7   12 ar
    14    7    8 ar
    15    8    9 ar
    16    8   32 1
    17    9   10 ar
    18    9   20 1
    19   10   11 ar
    20   10   33 1
    21   11   12 ar
    22   11   13 1
    23   12   34 1
    24   13   18 ar
    25   13   14 ar
    26   14   15 ar
    27   14   35 1
    28   15   16 ar
    29   15   36 1
    30   16   17 ar
    31   16   19 1
    32   17   18 ar
    33   17   37 1
    34   18   38 1
    35   19   39 1
    36   20   25 ar
    37   20   21 ar
    38   21   22 ar
    39   21   40 1
    40   22   23 ar
    41   22   41 1
    42   23   24 ar
    43   23   26 1
    44   24   25 ar
    45   24   42 1
    46   25   43 1
    47   26   44 1
    48   27   45 1
