@<TRIPOS>MOLECULE
CHEMBL78526
   43    46     0     0     0
SMALL
USER_CHARGES

@<TRIPOS>ATOM
      1 C1         -0.0187    1.5258    0.0104 C.3       1 <0>        -0.1524
      2 C2          0.0021   -0.0041    0.0020 C.3       1 <0>        -0.1227
      3 C3         -1.4333   -0.5336    0.0129 C.3       1 <0>        -0.1255
      4 C4         -1.4126   -2.0635    0.0045 C.3       1 <0>        -0.1012
      5 C5         -2.8479   -2.5931    0.0153 C.3       1 <0>        -0.0442
      6 C6         -2.8551   -4.1234   -0.0216 C.3       1 <0>         0.1971
      7 C7         -1.5128   -4.7818   -0.2367 C.2       1 <0>        -0.1868
      8 C8         -1.0819   -5.7395    0.5933 C.2       1 <0>        -0.0923
      9 C9         -1.7115   -6.2105    1.7807 C.2       1 <0>        -0.1767
     10 C10        -2.7171   -5.4218    2.2890 C.2       1 <0>         0.1589
     11 N1         -3.1034   -4.4136    1.3971 N.pl3     1 <0>        -0.5876
     12 C11        -3.6635   -3.3819    2.0838 C.2       1 <0>         0.1159
     13 C12        -3.5340   -2.2496    1.3334 C.2       1 <0>        -0.1224
     14 C13        -3.9840   -0.9112    1.7323 C.ar      1 <0>        -0.0211
     15 C14        -5.0113   -0.2744    1.0239 C.ar      1 <0>        -0.0896
     16 C15        -5.4296    0.9816    1.4034 C.ar      1 <0>        -0.1424
     17 C16        -4.8349    1.6173    2.4865 C.ar      1 <0>         0.1050
     18 C17        -3.8151    0.9911    3.1928 C.ar      1 <0>        -0.1428
     19 C18        -3.3920   -0.2673    2.8266 C.ar      1 <0>        -0.0880
     20 O1         -5.2518    2.8565    2.8561 O.3       1 <0>        -0.5002
     21 C19        -4.0849   -3.9775    3.3055 C.2       1 <0>        -0.0885
     22 C20        -3.5226   -5.2283    3.3966 C.2       1 <0>        -0.1060
     23 H1          1.0039    1.9031    0.0027 H         1 <0>         0.0525
     24 H2         -0.5459    1.8868   -0.8726 H         1 <0>         0.0529
     25 H3         -0.5289    1.8773    0.9072 H         1 <0>         0.0532
     26 H4          0.5123   -0.3556   -0.8948 H         1 <0>         0.0587
     27 H5          0.5293   -0.3651    0.8851 H         1 <0>         0.0581
     28 H6         -1.9435   -0.1821    0.9097 H         1 <0>         0.0727
     29 H7         -1.9605   -0.1726   -0.8702 H         1 <0>         0.0595
     30 H8         -0.9024   -2.4150   -0.8923 H         1 <0>         0.0683
     31 H9         -0.8854   -2.4246    0.8875 H         1 <0>         0.0628
     32 H10        -3.4103   -2.1863   -0.8251 H         1 <0>         0.0963
     33 H11        -3.6302   -4.5186   -0.6782 H         1 <0>         0.0937
     34 H12        -0.8949   -4.4771   -1.0685 H         1 <0>         0.1244
     35 H13        -0.1463   -6.2111    0.3312 H         1 <0>         0.1094
     36 H14        -1.4162   -7.1347    2.2550 H         1 <0>         0.1364
     37 H15        -5.4741   -0.7673    0.1817 H         1 <0>         0.1268
     38 H16        -6.2212    1.4737    0.8579 H         1 <0>         0.1294
     39 H17        -3.3563    1.4905    4.0333 H         1 <0>         0.1291
     40 H18        -2.6027   -0.7550    3.3793 H         1 <0>         0.1251
     41 H19        -5.9699    2.8529    3.5038 H         1 <0>         0.3912
     42 H20        -4.7368   -3.5237    4.0372 H         1 <0>         0.1531
     43 H21        -3.6821   -5.9378    4.1951 H         1 <0>         0.1600
@<TRIPOS>BOND
     1    1    2 1
     2    1   23 1
     3    1   24 1
     4    1   25 1
     5    2    3 1
     6    2   26 1
     7    2   27 1
     8    3    4 1
     9    3   28 1
    10    3   29 1
    11    4    5 1
    12    4   30 1
    13    4   31 1
    14    5   13 1
    15    5    6 1
    16    5   32 1
    17    6   11 1
    18    6    7 1
    19    6   33 1
    20    7    8 2
    21    7   34 1
    22    8    9 1
    23    8   35 1
    24    9   10 2
    25    9   36 1
    26   10   22 1
    27   10   11 1
    28   11   12 1
    29   12   13 2
    30   12   21 1
    31   13   14 1
    32   14   19 ar
    33   14   15 ar
    34   15   16 ar
    35   15   37 1
    36   16   17 ar
    37   16   38 1
    38   17   18 ar
    39   17   20 1
    40   18   19 ar
    41   18   39 1
    42   19   40 1
    43   20   41 1
    44   21   22 2
    45   21   42 1
    46   22   43 1
