@<TRIPOS>MOLECULE
CHEMBL297052
   68    73     0     0     0
SMALL
USER_CHARGES

@<TRIPOS>ATOM
      1 C1          5.3714    0.4998   -5.4117 C.ar      1 <0>        -0.1179
      2 C2          5.3949    1.4802   -4.4239 C.ar      1 <0>        -0.0973
      3 C3          5.2111    1.1545   -3.1121 C.ar      1 <0>        -0.1205
      4 C4          4.9957   -0.1825   -2.7567 C.ar      1 <0>        -0.0001
      5 C5          4.9707   -1.1791   -3.7550 C.ar      1 <0>        -0.0724
      6 C6          5.1641   -0.8093   -5.0967 C.ar      1 <0>        -0.0866
      7 C7          4.7544   -2.5308   -3.4034 C.ar      1 <0>         0.1530
      8 C8          4.5694   -2.8731   -2.0976 C.ar      1 <0>        -0.1070
      9 C9          4.5876   -1.9188   -1.0884 C.ar      1 <0>        -0.1021
     10 C10         4.7950   -0.5565   -1.3435 C.ar      1 <0>        -0.0658
     11 C11         4.7829    0.3075   -0.1661 C.2       1 <0>        -0.1630
     12 C12         4.5715   -0.2848    1.0743 C.2       1 <0>        -0.0621
     13 S1          4.3875   -2.0110    0.6733 S.3       1 <0>         0.1276
     14 C13         4.5147    0.3591    2.3992 C.ar      1 <0>        -0.0416
     15 C14         3.7416    1.5087    2.5875 C.ar      1 <0>        -0.0735
     16 C15         3.6913    2.1066    3.8274 C.ar      1 <0>        -0.1414
     17 C16         4.4075    1.5692    4.8899 C.ar      1 <0>         0.1268
     18 C17         5.1775    0.4270    4.7074 C.ar      1 <0>        -0.1433
     19 C18         5.2291   -0.1814    3.4726 C.ar      1 <0>        -0.0735
     20 O1          4.3552    2.1623    6.1105 O.3       1 <0>        -0.4984
     21 C19         4.9874    1.7525   -0.2879 C.2       1 <0>         0.4659
     22 O2          4.0431    2.4831   -0.5280 O.2       1 <0>        -0.4316
     23 C20         6.3388    2.3237   -0.1195 C.ar      1 <0>        -0.1842
     24 C21         7.4414    1.4799    0.0387 C.ar      1 <0>        -0.0184
     25 C22         8.6999    2.0165    0.1949 C.ar      1 <0>        -0.1520
     26 C23         8.8744    3.3955    0.1959 C.ar      1 <0>         0.1486
     27 C24         7.7802    4.2383    0.0389 C.ar      1 <0>        -0.2146
     28 C25         6.5192    3.7095   -0.1237 C.ar      1 <0>        -0.0174
     29 O3         10.1163    3.9205    0.3511 O.3       1 <0>        -0.3239
     30 C26        10.2240    5.3454    0.3426 C.3       1 <0>         0.0227
     31 C27        11.6885    5.7473    0.5290 C.3       1 <0>        -0.0010
     32 N1         12.4772    5.2676   -0.6137 N.4       1 <0>        -0.3846
     33 C28        13.9019    5.5135   -0.3607 C.3       1 <0>        -0.0072
     34 C29        14.7341    4.9429   -1.5111 C.3       1 <0>        -0.1466
     35 C30        14.3214    5.6240   -2.8191 C.3       1 <0>        -0.1391
     36 C31        12.8185    5.4241   -3.0352 C.3       1 <0>        -0.1454
     37 C32        12.0573    5.9769   -1.8283 C.3       1 <0>        -0.0136
     38 O4          4.7304   -3.4882   -4.3670 O.3       1 <0>        -0.4843
     39 H1          5.5153    0.7818   -6.4443 H         1 <0>         0.1300
     40 H2          5.5611    2.5111   -4.6993 H         1 <0>         0.1264
     41 H3          5.2318    1.9225   -2.3531 H         1 <0>         0.1243
     42 H4          5.1488   -1.5590   -5.8740 H         1 <0>         0.1386
     43 H5          4.4046   -3.9093   -1.8416 H         1 <0>         0.1429
     44 H6          3.1852    1.9275    1.7621 H         1 <0>         0.1337
     45 H7          3.0944    2.9947    3.9739 H         1 <0>         0.1373
     46 H8          5.7328    0.0130    5.5360 H         1 <0>         0.1381
     47 H9          5.8240   -1.0718    3.3328 H         1 <0>         0.1346
     48 H10         3.6455    1.8320    6.6782 H         1 <0>         0.3986
     49 H11         7.3066    0.4083    0.0387 H         1 <0>         0.1409
     50 H12         9.5526    1.3650    0.3172 H         1 <0>         0.1409
     51 H13         7.9199    5.3092    0.0402 H         1 <0>         0.1358
     52 H14         5.6701    4.3649   -0.2498 H         1 <0>         0.1436
     53 H15         9.8596    5.7316   -0.6094 H         1 <0>         0.0893
     54 H16         9.6273    5.7598    1.1551 H         1 <0>         0.1127
     55 H17        11.7622    6.8330    0.5912 H         1 <0>         0.1505
     56 H18        12.0728    5.3038    1.4475 H         1 <0>         0.1436
     57 H19        14.0769    6.5866   -0.2837 H         1 <0>         0.1296
     58 H20        14.1934    5.0309    0.5722 H         1 <0>         0.1313
     59 H21        15.7915    5.1281   -1.3221 H         1 <0>         0.1133
     60 H22        14.5601    3.8697   -1.5888 H         1 <0>         0.0880
     61 H23        14.5427    6.6897   -2.7608 H         1 <0>         0.0823
     62 H24        14.8711    5.1813   -3.6498 H         1 <0>         0.0949
     63 H25        12.5067    5.9532   -3.9357 H         1 <0>         0.1125
     64 H26        12.6048    4.3609   -3.1445 H         1 <0>         0.0878
     65 H27        10.9870    5.8364   -1.9789 H         1 <0>         0.1271
     66 H28        12.2716    7.0401   -1.7200 H         1 <0>         0.1308
     67 H29         5.5944   -3.8807   -4.5531 H         1 <0>         0.3975
     68 H30        12.3250    4.2774   -0.7341 H         1 <0>         0.4291
@<TRIPOS>BOND
     1    1    6 ar
     2    1    2 ar
     3    1   39 1
     4    2    3 ar
     5    2   40 1
     6    3    4 ar
     7    3   41 1
     8    4   10 ar
     9    4    5 ar
    10    5    6 ar
    11    5    7 ar
    12    6   42 1
    13    7    8 ar
    14    7   38 1
    15    8    9 ar
    16    8   43 1
    17    9   13 1
    18    9   10 ar
    19   10   11 1
    20   11   12 2
    21   11   21 1
    22   12   13 1
    23   12   14 1
    24   14   19 ar
    25   14   15 ar
    26   15   16 ar
    27   15   44 1
    28   16   17 ar
    29   16   45 1
    30   17   18 ar
    31   17   20 1
    32   18   19 ar
    33   18   46 1
    34   19   47 1
    35   20   48 1
    36   21   22 2
    37   21   23 1
    38   23   28 ar
    39   23   24 ar
    40   24   25 ar
    41   24   49 1
    42   25   26 ar
    43   25   50 1
    44   26   27 ar
    45   26   29 1
    46   27   28 ar
    47   27   51 1
    48   28   52 1
    49   29   30 1
    50   30   31 1
    51   30   53 1
    52   30   54 1
    53   31   32 1
    54   31   55 1
    55   31   56 1
    56   32   37 1
    57   32   33 1
    58   32   68 1
    59   33   34 1
    60   33   57 1
    61   33   58 1
    62   34   35 1
    63   34   59 1
    64   34   60 1
    65   35   36 1
    66   35   61 1
    67   35   62 1
    68   36   37 1
    69   36   63 1
    70   36   64 1
    71   37   65 1
    72   37   66 1
    73   38   67 1
