@<TRIPOS>MOLECULE
CHEMBL189077
   32    35     0     0     0
SMALL
USER_CHARGES

@<TRIPOS>ATOM
      1 C1         -0.0149    1.3847    0.0668 C.ar      1 <0>        -0.1185
      2 C2          1.1396    2.1061    0.0045 C.ar      1 <0>        -0.0753
      3 C3          2.3797    1.4480   -0.0696 C.ar      1 <0>        -0.0400
      4 C4          3.5826    2.1710   -0.1342 C.ar      1 <0>        -0.1284
      5 C5          4.7705    1.5004   -0.2050 C.ar      1 <0>         0.1127
      6 C6          4.8048    0.1030   -0.2140 C.ar      1 <0>        -0.1246
      7 C7          3.6557   -0.6245   -0.1524 C.ar      1 <0>        -0.0946
      8 C8          2.4192    0.0322   -0.0789 C.ar      1 <0>        -0.0294
      9 C9          1.2046   -0.6950   -0.0135 C.ar      1 <0>        -0.0235
     10 C10         0.0040   -0.0044    0.0589 C.ar      1 <0>        -0.0496
     11 C11         1.2171   -2.1696   -0.0220 C.2       1 <0>         0.2949
     12 N1          0.5415   -2.9312    0.8021 N.2       1 <0>        -0.4564
     13 C12         0.7937   -4.2310    0.5018 C.ar      1 <0>         0.0145
     14 C13         0.3576   -5.4461    1.0371 C.ar      1 <0>        -0.0403
     15 C14         0.8007   -6.6234    0.5044 C.ar      1 <0>        -0.1399
     16 C15         1.6858   -6.6242   -0.5698 C.ar      1 <0>         0.1385
     17 C16         2.1289   -5.4301   -1.1128 C.ar      1 <0>        -0.1229
     18 C17         1.6868   -4.2284   -0.5828 C.ar      1 <0>         0.0260
     19 O1          1.9208   -2.9315   -0.8822 O.3       1 <0>        -0.2032
     20 O2          2.1179   -7.8039   -1.0885 O.3       1 <0>        -0.4887
     21 O3          5.9335    2.2004   -0.2679 O.3       1 <0>        -0.4978
     22 H1         -0.9609    1.9019    0.1280 H         1 <0>         0.1388
     23 H2          1.1017    3.1854    0.0116 H         1 <0>         0.1380
     24 H3          3.5681    3.2509   -0.1283 H         1 <0>         0.1403
     25 H4          5.7555   -0.4063   -0.2709 H         1 <0>         0.1344
     26 H5          3.6965   -1.7037   -0.1605 H         1 <0>         0.1300
     27 H6         -0.9255   -0.5520    0.1096 H         1 <0>         0.1378
     28 H7         -0.3286   -5.4544    1.8711 H         1 <0>         0.1442
     29 H8          0.4619   -7.5608    0.9202 H         1 <0>         0.1465
     30 H9          2.8162   -5.4352   -1.9459 H         1 <0>         0.1439
     31 H10         1.5612   -8.1481   -1.8003 H         1 <0>         0.3982
     32 H11         6.3203    2.3989    0.5959 H         1 <0>         0.3941
@<TRIPOS>BOND
     1    1   10 ar
     2    1    2 ar
     3    1   22 1
     4    2    3 ar
     5    2   23 1
     6    3    8 ar
     7    3    4 ar
     8    4    5 ar
     9    4   24 1
    10    5    6 ar
    11    5   21 1
    12    6    7 ar
    13    6   25 1
    14    7    8 ar
    15    7   26 1
    16    8    9 ar
    17    9   10 ar
    18    9   11 1
    19   10   27 1
    20   11   19 1
    21   11   12 2
    22   12   13 1
    23   13   18 ar
    24   13   14 ar
    25   14   15 ar
    26   14   28 1
    27   15   16 ar
    28   15   29 1
    29   16   17 ar
    30   16   20 1
    31   17   18 ar
    32   17   30 1
    33   18   19 1
    34   20   31 1
    35   21   32 1
