@<TRIPOS>MOLECULE
CHEMBL1097377
   59    64     0     0     0
SMALL
USER_CHARGES

@<TRIPOS>ATOM
      1 C1          0.1267    1.4015    0.2656 C.3       1 <0>        -0.1369
      2 C2          0.2163   -0.1215    0.1495 C.3       1 <0>        -0.0414
      3 C3         -1.1105   -0.7397    0.5379 C.3       1 <0>        -0.1003
      4 C4         -1.4616   -0.2384    1.9518 C.3       1 <0>        -0.1139
      5 C5         -0.3546   -0.5882    2.9358 C.3       1 <0>        -0.0413
      6 H1         -0.2774   -1.6745    2.9835 H         1 <0>         0.0761
      7 C6         -0.6569   -0.0843    4.3175 C.ar      1 <0>        -0.0773
      8 C7         -1.9812   -0.0599    4.7337 C.ar      1 <0>        -0.1029
      9 C8         -2.3125    0.3844    5.9959 C.ar      1 <0>        -0.1471
     10 C9         -1.3124    0.8095    6.8586 C.ar      1 <0>         0.1026
     11 C10         0.0071    0.7889    6.4421 C.ar      1 <0>        -0.1480
     12 C11         0.3394    0.3476    5.1681 C.ar      1 <0>        -0.0576
     13 C12         1.7927    0.3807    4.7751 C.3       1 <0>        -0.0822
     14 C13         2.0476   -0.4456    3.5154 C.3       1 <0>        -0.1136
     15 C14         1.0019   -0.0371    2.4774 C.3       1 <0>        -0.0742
     16 H2          0.9508    1.0488    2.3984 H         1 <0>         0.0873
     17 C15         1.3002   -0.6555    1.1271 C.3       1 <0>        -0.0852
     18 H3          1.2530   -1.7423    1.1960 H         1 <0>         0.0797
     19 C16         2.5891   -0.1981    0.4355 C.3       1 <0>        -0.1129
     20 C17         2.3048   -0.4942   -1.0625 C.3       1 <0>        -0.1493
     21 C18         0.7638   -0.4984   -1.2221 C.3       1 <0>         0.1837
     22 C19         0.2833   -1.8711   -1.6170 C.ar      1 <0>        -0.0952
     23 C20        -0.6873   -2.0094   -2.5919 C.ar      1 <0>        -0.1047
     24 C21        -1.1288   -3.2685   -2.9556 C.ar      1 <0>        -0.0904
     25 C22        -0.5995   -4.3865   -2.3445 C.ar      1 <0>        -0.1322
     26 C23         0.3735   -4.2479   -1.3673 C.ar      1 <0>        -0.1300
     27 C24         0.8177   -2.9920   -1.0082 C.ar      1 <0>        -0.0856
     28 C25         0.7414   -5.6368   -0.9004 C.3       1 <0>         0.0898
     29 O1         -0.3307   -6.4958   -1.3302 O.3       1 <0>        -0.3596
     30 C26        -0.8613   -5.8652   -2.5104 C.3       1 <0>         0.0890
     31 O2          0.3642    0.4668   -2.1972 O.3       1 <0>        -0.5444
     32 O3         -1.6272    1.2438    8.1073 O.3       1 <0>        -0.5004
     33 H4          1.1064    1.8388    0.0733 H         1 <0>         0.0560
     34 H5         -0.5896    1.7799   -0.4636 H         1 <0>         0.0626
     35 H6         -0.2006    1.6707    1.2699 H         1 <0>         0.0622
     36 H7         -1.8828   -0.4306   -0.1664 H         1 <0>         0.0668
     37 H8         -1.0253   -1.8263    0.5413 H         1 <0>         0.0650
     38 H9         -1.5916    0.8435    1.9273 H         1 <0>         0.0708
     39 H10        -2.3918   -0.7040    2.2773 H         1 <0>         0.0653
     40 H11        -2.7592   -0.3918    4.0622 H         1 <0>         0.1274
     41 H12        -3.3452    0.4018    6.3116 H         1 <0>         0.1273
     42 H13         0.7855    1.1194    7.1138 H         1 <0>         0.1259
     43 H14         2.0888    1.4134    4.5904 H         1 <0>         0.0775
     44 H15         2.3924   -0.0203    5.5922 H         1 <0>         0.0748
     45 H16         3.0476   -0.2370    3.1350 H         1 <0>         0.0722
     46 H17         1.9557   -1.5067    3.7469 H         1 <0>         0.0662
     47 H18         2.7540    0.8677    0.5933 H         1 <0>         0.0744
     48 H19         3.4424   -0.7777    0.7879 H         1 <0>         0.0692
     49 H20         2.7435    0.2836   -1.6875 H         1 <0>         0.0770
     50 H21         2.7119   -1.4679   -1.3352 H         1 <0>         0.0726
     51 H22        -1.1012   -1.1336   -3.0694 H         1 <0>         0.1342
     52 H23        -1.8872   -3.3765   -3.7169 H         1 <0>         0.1263
     53 H24         1.5788   -2.8841   -0.2496 H         1 <0>         0.1280
     54 H25         1.6800   -5.9503   -1.3574 H         1 <0>         0.0779
     55 H26         0.8267   -5.6576    0.1861 H         1 <0>         0.0974
     56 H27        -1.9327   -6.0507   -2.5859 H         1 <0>         0.0980
     57 H28        -0.3512   -6.2397   -3.3979 H         1 <0>         0.0781
     58 H29         0.6837    0.2790   -3.0904 H         1 <0>         0.3751
     59 H30        -1.6337    0.5458    8.7765 H         1 <0>         0.3901
@<TRIPOS>BOND
     1    1    2 1
     2    1   33 1
     3    1   34 1
     4    1   35 1
     5    2   17 1
     6    2   21 1
     7    2    3 1
     8    3    4 1
     9    3   36 1
    10    3   37 1
    11    4    5 1
    12    4   38 1
    13    4   39 1
    14    5    6 1
    15    5   15 1
    16    5    7 1
    17    7   12 ar
    18    7    8 ar
    19    8    9 ar
    20    8   40 1
    21    9   10 ar
    22    9   41 1
    23   10   11 ar
    24   10   32 1
    25   11   12 ar
    26   11   42 1
    27   12   13 1
    28   13   14 1
    29   13   43 1
    30   13   44 1
    31   14   15 1
    32   14   45 1
    33   14   46 1
    34   15   16 1
    35   15   17 1
    36   17   18 1
    37   17   19 1
    38   19   20 1
    39   19   47 1
    40   19   48 1
    41   20   21 1
    42   20   49 1
    43   20   50 1
    44   21   22 1
    45   21   31 1
    46   22   27 ar
    47   22   23 ar
    48   23   24 ar
    49   23   51 1
    50   24   25 ar
    51   24   52 1
    52   25   30 1
    53   25   26 ar
    54   26   27 ar
    55   26   28 1
    56   27   53 1
    57   28   29 1
    58   28   54 1
    59   28   55 1
    60   29   30 1
    61   30   56 1
    62   30   57 1
    63   31   58 1
    64   32   59 1
