@<TRIPOS>MOLECULE
CHEMBL183685
   65    70     0     0     0
SMALL
USER_CHARGES

@<TRIPOS>ATOM
      1 C1          0.2392    0.7550    0.7880 C.ar      1 <0>        -0.0727
      2 C2          1.3759    1.5346    0.7844 C.ar      1 <0>        -0.1337
      3 C3          2.4920    1.1351    0.0609 C.ar      1 <0>         0.1128
      4 C4          2.4680   -0.0510   -0.6613 C.ar      1 <0>        -0.1958
      5 C5          1.3352   -0.8363   -0.6628 C.ar      1 <0>        -0.0715
      6 C6          0.2110   -0.4381    0.0633 C.ar      1 <0>        -0.0426
      7 C7         -1.0061   -1.2778    0.0648 C.ar      1 <0>        -0.0491
      8 C8         -1.1799   -2.2754    1.0448 C.ar      1 <0>        -0.0120
      9 C9         -0.2174   -2.5053    2.0397 C.ar      1 <0>        -0.1417
     10 C10        -0.4305   -3.4843    2.9677 C.ar      1 <0>         0.1240
     11 C11        -1.5888   -4.2669    2.9516 C.ar      1 <0>        -0.1417
     12 C12        -2.5547   -4.0903    2.0128 C.ar      1 <0>        -0.0764
     13 C13        -2.3932   -3.0953    1.0280 C.ar      1 <0>        -0.0629
     14 C14        -3.3595   -2.8778    0.0433 C.ar      1 <0>        -0.0670
     15 C15        -3.1672   -1.8858   -0.9161 C.ar      1 <0>        -0.0527
     16 C16        -1.9977   -1.0845   -0.9033 C.ar      1 <0>        -0.0024
     17 C17        -1.8324   -0.0448   -1.9273 C.ar      1 <0>        -0.0549
     18 C18        -0.6914    0.7617   -1.9512 C.ar      1 <0>        -0.1277
     19 C19        -0.5560    1.7224   -2.9113 C.ar      1 <0>        -0.1417
     20 C20        -1.5467    1.9107   -3.8739 C.ar      1 <0>         0.1137
     21 C21        -2.6837    1.1284   -3.8737 C.ar      1 <0>        -0.1332
     22 C22        -2.8414    0.1372   -2.8969 C.ar      1 <0>        -0.0258
     23 C23        -4.0340   -0.7044   -2.8751 C.ar      1 <0>        -0.1059
     24 C24        -4.1853   -1.6655   -1.9436 C.ar      1 <0>        -0.0972
     25 O1         -1.3917    2.8733   -4.8205 O.3       1 <0>        -0.4984
     26 O2          0.5049   -3.7029    3.9286 O.3       1 <0>        -0.5006
     27 O3          3.6102    1.9068    0.0591 O.3       1 <0>        -0.3254
     28 C25         4.7217    1.4367   -0.7060 C.3       1 <0>         0.0241
     29 C26         5.8792    2.4302   -0.5876 C.3       1 <0>        -0.0012
     30 N1          6.3499    2.4701    0.8033 N.4       1 <0>        -0.3843
     31 C27         7.3480    3.5364    0.9502 C.3       1 <0>        -0.0071
     32 C28         7.7821    3.6358    2.4141 C.3       1 <0>        -0.1467
     33 C29         8.3910    2.3006    2.8521 C.3       1 <0>        -0.1390
     34 C30         7.3670    1.1848    2.6249 C.3       1 <0>        -0.1453
     35 C31         6.9483    1.1762    1.1531 C.3       1 <0>        -0.0134
     36 H1         -0.6269    1.0644    1.3542 H         1 <0>         0.1411
     37 H2          1.3986    2.4576    1.3447 H         1 <0>         0.1390
     38 H3          3.3379   -0.3582   -1.2227 H         1 <0>         0.1328
     39 H4          1.3170   -1.7581   -1.2252 H         1 <0>         0.1363
     40 H5          0.6851   -1.9129    2.0711 H         1 <0>         0.1311
     41 H6         -1.7187   -5.0309    3.7038 H         1 <0>         0.1335
     42 H7         -3.4405   -4.7081    2.0214 H         1 <0>         0.1393
     43 H8         -4.2563   -3.4792    0.0252 H         1 <0>         0.1404
     44 H9          0.0825    0.6251   -1.2104 H         1 <0>         0.1670
     45 H10         0.3276    2.3432   -2.9252 H         1 <0>         0.1247
     46 H11        -3.4471    1.2794   -4.6226 H         1 <0>         0.1374
     47 H12        -4.8021   -0.5593   -3.6203 H         1 <0>         0.1345
     48 H13        -5.0769   -2.2749   -1.9481 H         1 <0>         0.1361
     49 H14        -0.9450    2.5684   -5.6221 H         1 <0>         0.3930
     50 H15         0.3732   -3.1809    4.7318 H         1 <0>         0.3936
     51 H16         5.0376    0.4642   -0.3282 H         1 <0>         0.0873
     52 H17         4.4292    1.3426   -1.7518 H         1 <0>         0.1102
     53 H18         6.6953    2.1166   -1.2385 H         1 <0>         0.1493
     54 H19         5.5383    3.4221   -0.8844 H         1 <0>         0.1431
     55 H20         8.2147    3.3101    0.3292 H         1 <0>         0.1292
     56 H21         6.9141    4.4854    0.6351 H         1 <0>         0.1312
     57 H22         8.5244    4.4268    2.5207 H         1 <0>         0.1131
     58 H23         6.9161    3.8623    3.0360 H         1 <0>         0.0880
     59 H24         9.2868    2.0984    2.2648 H         1 <0>         0.0821
     60 H25         8.6502    2.3477    3.9098 H         1 <0>         0.0947
     61 H26         7.8127    0.2239    2.8821 H         1 <0>         0.1124
     62 H27         6.4924    1.3604    3.2511 H         1 <0>         0.0879
     63 H28         6.2194    0.3828    0.9878 H         1 <0>         0.1275
     64 H29         7.8236    1.0003    0.5278 H         1 <0>         0.1303
     65 H30         5.5700    2.6555    1.4161 H         1 <0>         0.4293
@<TRIPOS>BOND
     1    1    6 ar
     2    1    2 ar
     3    1   36 1
     4    2    3 ar
     5    2   37 1
     6    3    4 ar
     7    3   27 1
     8    4    5 ar
     9    4   38 1
    10    5    6 ar
    11    5   39 1
    12    6    7 1
    13    7   16 ar
    14    7    8 ar
    15    8   13 ar
    16    8    9 ar
    17    9   10 ar
    18    9   40 1
    19   10   11 ar
    20   10   26 1
    21   11   12 ar
    22   11   41 1
    23   12   13 ar
    24   12   42 1
    25   13   14 ar
    26   14   15 ar
    27   14   43 1
    28   15   24 ar
    29   15   16 ar
    30   16   17 ar
    31   17   22 ar
    32   17   18 ar
    33   18   19 ar
    34   18   44 1
    35   19   20 ar
    36   19   45 1
    37   20   21 ar
    38   20   25 1
    39   21   22 ar
    40   21   46 1
    41   22   23 ar
    42   23   24 ar
    43   23   47 1
    44   24   48 1
    45   25   49 1
    46   26   50 1
    47   27   28 1
    48   28   29 1
    49   28   51 1
    50   28   52 1
    51   29   30 1
    52   29   53 1
    53   29   54 1
    54   30   35 1
    55   30   31 1
    56   30   65 1
    57   31   32 1
    58   31   55 1
    59   31   56 1
    60   32   33 1
    61   32   57 1
    62   32   58 1
    63   33   34 1
    64   33   59 1
    65   33   60 1
    66   34   35 1
    67   34   61 1
    68   34   62 1
    69   35   63 1
    70   35   64 1
