@<TRIPOS>MOLECULE
CHEMBL57150
   38    40     0     0     0
SMALL
USER_CHARGES

@<TRIPOS>ATOM
      1 C1         -0.0167    1.3784    0.0096 C.ar      1 <0>        -0.1011
      2 C2          1.1695    2.0865    0.0021 C.ar      1 <0>        -0.1441
      3 C3          2.3802    1.4093   -0.0131 C.ar      1 <0>         0.0987
      4 C4          2.3963    0.0221   -0.0206 C.ar      1 <0>        -0.1451
      5 C5          1.2074   -0.6814   -0.0130 C.ar      1 <0>        -0.1048
      6 C6          0.0021   -0.0041    0.0020 C.ar      1 <0>        -0.0812
      7 C7         -1.2934   -0.7740    0.0107 C.3       1 <0>        -0.0388
      8 H1         -2.1342   -0.0805    0.0227 H         1 <0>         0.0813
      9 C8         -1.3502   -1.6789    1.2460 C.3       1 <0>        -0.1153
     10 C9         -2.6775   -2.4356    1.2628 C.3       1 <0>        -0.0991
     11 C10        -2.8642   -3.2384   -0.0152 C.3       1 <0>        -0.0510
     12 C11        -1.8638   -4.3815   -0.1179 C.3       1 <0>        -0.0732
     13 C12        -0.5327   -3.9016   -0.6107 C.2       1 <0>        -0.1515
     14 C13        -0.3109   -2.7290   -1.1097 C.2       1 <0>        -0.1546
     15 C14        -1.3750   -1.6689   -1.2376 C.3       1 <0>        -0.0471
     16 H2         -1.2212   -1.0791   -2.1412 H         1 <0>         0.0847
     17 C15        -2.7534   -2.3408   -1.2485 C.3       1 <0>        -0.1043
     18 C16        -4.2665   -3.8500    0.0052 C.3       1 <0>         0.0798
     19 O1         -4.3977   -4.7027    1.1445 O.3       1 <0>        -0.5697
     20 O2          3.5484    2.1036   -0.0209 O.3       1 <0>        -0.5010
     21 H3         -0.9594    1.9052    0.0259 H         1 <0>         0.1253
     22 H4          1.1543    3.1664    0.0076 H         1 <0>         0.1272
     23 H5          3.3375   -0.5074   -0.0328 H         1 <0>         0.1266
     24 H6          1.2194   -1.7613   -0.0189 H         1 <0>         0.1366
     25 H7         -0.5261   -2.3915    1.2126 H         1 <0>         0.0727
     26 H8         -1.2677   -1.0701    2.1464 H         1 <0>         0.0619
     27 H9         -2.6923   -3.1133    2.1164 H         1 <0>         0.0722
     28 H10        -3.4953   -1.7216    1.3596 H         1 <0>         0.0591
     29 H11        -1.7377   -4.8343    0.8656 H         1 <0>         0.0778
     30 H12        -2.2498   -5.1321   -0.8077 H         1 <0>         0.0717
     31 H13         0.3019   -4.5838   -0.5441 H         1 <0>         0.1018
     32 H14         0.6868   -2.4978   -1.4522 H         1 <0>         0.1089
     33 H15        -2.8615   -2.9422   -2.1511 H         1 <0>         0.0688
     34 H16        -3.5324   -1.5789   -1.2191 H         1 <0>         0.0686
     35 H17        -5.0092   -3.0541    0.0596 H         1 <0>         0.0447
     36 H18        -4.4226   -4.4313   -0.9035 H         1 <0>         0.0449
     37 H19        -5.2639   -5.1255    1.2215 H         1 <0>         0.3787
     38 H20         3.8951    2.3001    0.8601 H         1 <0>         0.3901
@<TRIPOS>BOND
     1    1    6 ar
     2    1    2 ar
     3    1   21 1
     4    2    3 ar
     5    2   22 1
     6    3    4 ar
     7    3   20 1
     8    4    5 ar
     9    4   23 1
    10    5    6 ar
    11    5   24 1
    12    6    7 1
    13    7    8 1
    14    7   15 1
    15    7    9 1
    16    9   10 1
    17    9   25 1
    18    9   26 1
    19   10   11 1
    20   10   27 1
    21   10   28 1
    22   11   17 1
    23   11   12 1
    24   11   18 1
    25   12   13 1
    26   12   29 1
    27   12   30 1
    28   13   14 2
    29   13   31 1
    30   14   15 1
    31   14   32 1
    32   15   16 1
    33   15   17 1
    34   17   33 1
    35   17   34 1
    36   18   19 1
    37   18   35 1
    38   18   36 1
    39   19   37 1
    40   20   38 1
