@<TRIPOS>MOLECULE
CHEMBL372808
   67    71     0     0     0
SMALL
USER_CHARGES

@<TRIPOS>ATOM
      1 C1         -0.0184    1.5028    0.0103 C.3       1 <0>        -0.0837
      2 C2          0.0021   -0.0041    0.0020 C.2       1 <0>        -0.1408
      3 C3          0.0091   -0.8675   -1.1778 C.ar      1 <0>        -0.0877
      4 C4         -0.0004   -0.6231   -2.5546 C.ar      1 <0>        -0.0921
      5 C5          0.0107   -1.6853   -3.4358 C.ar      1 <0>         0.0784
      6 C6          0.0312   -2.9935   -2.9582 C.ar      1 <0>        -0.1155
      7 C7          0.0407   -3.2464   -1.6044 C.ar      1 <0>        -0.1168
      8 C8          0.0298   -2.1908   -0.6991 C.ar      1 <0>         0.1036
      9 N1          0.0350   -2.1304    0.6795 N.pl3     1 <0>        -0.4728
     10 C9          0.0234   -0.8169    1.0876 C.2       1 <0>         0.1147
     11 C10         0.0303   -0.3610    2.4942 C.ar      1 <0>        -0.0353
     12 C11        -0.8022   -0.9735    3.4324 C.ar      1 <0>        -0.0983
     13 C12        -0.7930   -0.5455    4.7428 C.ar      1 <0>        -0.1410
     14 C13         0.0430    0.4934    5.1299 C.ar      1 <0>         0.1137
     15 C14         0.8723    1.1056    4.1995 C.ar      1 <0>        -0.1409
     16 C15         0.8734    0.6793    2.8885 C.ar      1 <0>        -0.0776
     17 O1          0.0492    0.9124    6.4224 O.3       1 <0>        -0.4955
     18 C16         0.0553   -3.2906    1.5738 C.3       1 <0>         0.1433
     19 C17         1.4829   -3.6679    1.8747 C.ar      1 <0>        -0.1314
     20 C18         2.1452   -4.5678    1.0603 C.ar      1 <0>        -0.0557
     21 C19         3.4538   -4.9158    1.3342 C.ar      1 <0>        -0.1413
     22 C20         4.1035   -4.3611    2.4273 C.ar      1 <0>         0.1228
     23 C21         3.4369   -3.4580    3.2427 C.ar      1 <0>        -0.2028
     24 C22         2.1301   -3.1094    2.9615 C.ar      1 <0>        -0.0534
     25 O2          5.3906   -4.7021    2.6992 O.3       1 <0>        -0.3230
     26 C23         5.9962   -4.0918    3.8406 C.3       1 <0>         0.0317
     27 C24         7.4342   -4.5942    3.9848 C.3       1 <0>         0.0390
     28 H1          7.9244   -4.0634    4.8009 H         1 <0>         0.1527
     29 C25         8.1956   -4.3415    2.6820 C.3       1 <0>        -0.1809
     30 N2          7.4231   -6.0344    4.2741 N.4       1 <0>        -0.3933
     31 C26         8.8074   -6.5214    4.5033 C.3       1 <0>        -0.0062
     32 C27         8.5953   -7.8225    5.3174 C.3       1 <0>        -0.1452
     33 C28         7.4037   -7.4654    6.2354 C.3       1 <0>        -0.1433
     34 C29         6.6901   -6.2963    5.5317 C.3       1 <0>        -0.0121
     35 O3          0.0011   -1.4537   -4.7757 O.3       1 <0>        -0.4960
     36 H2          1.0042    1.8801    0.0026 H         1 <0>         0.0656
     37 H3         -0.5455    1.8639   -0.8728 H         1 <0>         0.0682
     38 H4         -0.5286    1.8543    0.9071 H         1 <0>         0.0665
     39 H5         -0.0167    0.3908   -2.9262 H         1 <0>         0.1304
     40 H6          0.0394   -3.8175   -3.6563 H         1 <0>         0.1330
     41 H7          0.0563   -4.2650   -1.2457 H         1 <0>         0.1210
     42 H8         -1.4530   -1.7814    3.1320 H         1 <0>         0.1285
     43 H9         -1.4371   -1.0187    5.4692 H         1 <0>         0.1342
     44 H10         1.5208    1.9136    4.5043 H         1 <0>         0.1348
     45 H11         1.5224    1.1524    2.1665 H         1 <0>         0.1334
     46 H12         0.6888    0.4513    6.9822 H         1 <0>         0.3917
     47 H13        -0.4584   -3.0424    2.5026 H         1 <0>         0.1031
     48 H14        -0.4485   -4.1290    1.0928 H         1 <0>         0.0995
     49 H15         1.6390   -4.9994    0.2095 H         1 <0>         0.1348
     50 H16         3.9704   -5.6193    0.6982 H         1 <0>         0.1350
     51 H17         3.9405   -3.0249    4.0943 H         1 <0>         0.1277
     52 H18         1.6121   -2.4031    3.5934 H         1 <0>         0.1291
     53 H19         6.0005   -3.0092    3.7144 H         1 <0>         0.1068
     54 H20         5.4294   -4.3512    4.7348 H         1 <0>         0.0854
     55 H21         8.2039   -3.2729    2.4673 H         1 <0>         0.1054
     56 H22         9.2201   -4.6994    2.7847 H         1 <0>         0.0841
     57 H23         7.7054   -4.8723    1.8659 H         1 <0>         0.0897
     58 H24         9.3014   -6.7367    3.5558 H         1 <0>         0.1364
     59 H25         9.3800   -5.7954    5.0806 H         1 <0>         0.1344
     60 H26         8.3395   -8.6523    4.6586 H         1 <0>         0.0985
     61 H27         9.4808   -8.0565    5.9083 H         1 <0>         0.1178
     62 H28         6.7306   -8.3175    6.3302 H         1 <0>         0.1054
     63 H29         7.7621   -7.1543    7.2167 H         1 <0>         0.1046
     64 H30         6.7137   -5.4106    6.1666 H         1 <0>         0.1291
     65 H31         5.6586   -6.5702    5.3101 H         1 <0>         0.1300
     66 H32         0.8816   -1.3740   -5.1674 H         1 <0>         0.3877
     67 H33         6.9973   -6.5396    3.5115 H         1 <0>         0.4313
@<TRIPOS>BOND
     1    1    2 1
     2    1   36 1
     3    1   37 1
     4    1   38 1
     5    2   10 2
     6    2    3 1
     7    3    8 ar
     8    3    4 ar
     9    4    5 ar
    10    4   39 1
    11    5    6 ar
    12    5   35 1
    13    6    7 ar
    14    6   40 1
    15    7    8 ar
    16    7   41 1
    17    8    9 1
    18    9   10 1
    19    9   18 1
    20   10   11 1
    21   11   16 ar
    22   11   12 ar
    23   12   13 ar
    24   12   42 1
    25   13   14 ar
    26   13   43 1
    27   14   15 ar
    28   14   17 1
    29   15   16 ar
    30   15   44 1
    31   16   45 1
    32   17   46 1
    33   18   19 1
    34   18   47 1
    35   18   48 1
    36   19   24 ar
    37   19   20 ar
    38   20   21 ar
    39   20   49 1
    40   21   22 ar
    41   21   50 1
    42   22   23 ar
    43   22   25 1
    44   23   24 ar
    45   23   51 1
    46   24   52 1
    47   25   26 1
    48   26   27 1
    49   26   53 1
    50   26   54 1
    51   27   28 1
    52   27   29 1
    53   27   30 1
    54   29   55 1
    55   29   56 1
    56   29   57 1
    57   30   34 1
    58   30   31 1
    59   30   67 1
    60   31   32 1
    61   31   58 1
    62   31   59 1
    63   32   33 1
    64   32   60 1
    65   32   61 1
    66   33   34 1
    67   33   62 1
    68   33   63 1
    69   34   64 1
    70   34   65 1
    71   35   66 1
