@<TRIPOS>MOLECULE
CHEMBL195212
   67    72     0     0     0
SMALL
USER_CHARGES

@<TRIPOS>ATOM
      1 C1          7.5396   -2.2416   -3.3434 C.ar      1 <0>        -0.1761
      2 C2          7.0990   -1.3238   -2.4075 C.ar      1 <0>        -0.0707
      3 C3          5.9793   -1.5953   -1.6459 C.ar      1 <0>        -0.1982
      4 C4          5.2957   -2.7918   -1.8208 C.ar      1 <0>         0.2233
      5 C5          5.7411   -3.7115   -2.7617 C.ar      1 <0>        -0.1972
      6 C6          6.8614   -3.4337   -3.5200 C.ar      1 <0>        -0.0704
      7 N1          4.1632   -3.0697   -1.0519 N.pl3     1 <0>        -0.6202
      8 C7          3.3555   -4.2779   -1.2875 C.3       1 <0>         0.1142
      9 C8          1.9679   -3.8327   -1.7466 C.3       1 <0>        -0.1032
     10 C9          1.4303   -2.7463   -0.8527 C.ar      1 <0>        -0.0467
     11 C10         0.0579   -2.5326   -0.8544 C.ar      1 <0>        -0.1478
     12 C11        -0.5011   -1.5441   -0.0634 C.ar      1 <0>         0.1145
     13 C12         0.3170   -0.7589    0.7364 C.ar      1 <0>        -0.1456
     14 C13         1.6786   -0.9745    0.7390 C.ar      1 <0>        -0.0890
     15 C14         2.2378   -1.9711   -0.0504 C.ar      1 <0>        -0.1002
     16 C15         3.7347   -2.1728    0.0267 C.3       1 <0>         0.2402
     17 C16         4.0955   -2.7808    1.3575 C.ar      1 <0>        -0.1240
     18 C17         5.0301   -2.1624    2.1678 C.ar      1 <0>        -0.0562
     19 C18         5.3630   -2.7168    3.3880 C.ar      1 <0>        -0.1838
     20 C19         4.7580   -3.8970    3.8012 C.ar      1 <0>         0.2019
     21 C20         3.8196   -4.5155    2.9848 C.ar      1 <0>        -0.1847
     22 C21         3.4871   -3.9527    1.7683 C.ar      1 <0>        -0.0531
     23 N2          5.0928   -4.4607    5.0345 N.pl3     1 <0>        -0.6431
     24 C22         4.5667   -5.7744    5.4395 C.3       1 <0>         0.1006
     25 C23         5.7494   -6.6440    5.8717 C.3       1 <0>        -0.0231
     26 N3          6.5132   -5.9639    6.9300 N.4       1 <0>        -0.3771
     27 C24         7.5750   -6.8792    7.3749 C.3       1 <0>        -0.0074
     28 C25         8.3704   -6.2506    8.5183 C.3       1 <0>        -0.1456
     29 C26         9.0114   -4.9521    8.0170 C.3       1 <0>        -0.1366
     30 C27         7.9044   -4.0233    7.5160 C.3       1 <0>        -0.1398
     31 C28         7.0973   -4.7208    6.4157 C.3       1 <0>         0.0165
     32 C29         5.9869   -3.7661    5.9700 C.3       1 <0>         0.1046
     33 O1         -1.8451   -1.3430   -0.0702 O.3       1 <0>        -0.4975
     34 H1          8.4128   -2.0249   -3.9408 H         1 <0>         0.1191
     35 H2          7.6312   -0.3939   -2.2718 H         1 <0>         0.1210
     36 H3          5.6359   -0.8783   -0.9149 H         1 <0>         0.1177
     37 H4          5.2120   -4.6428   -2.9000 H         1 <0>         0.1213
     38 H5          7.2083   -4.1483   -4.2517 H         1 <0>         0.1215
     39 H6          3.8217   -4.8881   -2.0610 H         1 <0>         0.0921
     40 H7          3.2721   -4.8516   -0.3645 H         1 <0>         0.0717
     41 H8          2.0314   -3.4577   -2.7681 H         1 <0>         0.0862
     42 H9          1.2906   -4.6863   -1.7204 H         1 <0>         0.0869
     43 H10        -0.5784   -3.1432   -1.4780 H         1 <0>         0.1299
     44 H11        -0.1107    0.0175    1.3535 H         1 <0>         0.1311
     45 H12         2.3162   -0.3631    1.3603 H         1 <0>         0.1257
     46 H13         4.2369   -1.2113   -0.0802 H         1 <0>         0.1038
     47 H14         5.5004   -1.2450    1.8458 H         1 <0>         0.1274
     48 H15         6.0933   -2.2336    4.0202 H         1 <0>         0.1231
     49 H16         3.3476   -5.4334    3.3029 H         1 <0>         0.1224
     50 H17         2.7544   -4.4307    1.1350 H         1 <0>         0.1283
     51 H18         3.8744   -5.6533    6.2727 H         1 <0>         0.0878
     52 H19         4.0540   -6.2413    4.5984 H         1 <0>         0.1265
     53 H20         5.3789   -7.5973    6.2486 H         1 <0>         0.1409
     54 H21         6.3989   -6.8231    5.0149 H         1 <0>         0.1314
     55 H22         7.1273   -7.8124    7.7169 H         1 <0>         0.1312
     56 H23         8.2450   -7.0875    6.5408 H         1 <0>         0.1271
     57 H24         7.7021   -6.0307    9.3508 H         1 <0>         0.0883
     58 H25         9.1490   -6.9404    8.8443 H         1 <0>         0.1135
     59 H26         9.5508   -4.4714    8.8332 H         1 <0>         0.0972
     60 H27         9.6993   -5.1747    7.2014 H         1 <0>         0.0823
     61 H28         7.2430   -3.7686    8.3441 H         1 <0>         0.0900
     62 H29         8.3495   -3.1121    7.1163 H         1 <0>         0.1131
     63 H30         7.7492   -4.9457    5.5716 H         1 <0>         0.1384
     64 H31         6.4288   -2.9004    5.4767 H         1 <0>         0.1249
     65 H32         5.4196   -3.4396    6.8416 H         1 <0>         0.0862
     66 H33        -2.3241   -1.8644    0.5885 H         1 <0>         0.3927
     67 H34         5.9017   -5.7535    7.7045 H         1 <0>         0.4204
@<TRIPOS>BOND
     1    1    6 ar
     2    1    2 ar
     3    1   34 1
     4    2    3 ar
     5    2   35 1
     6    3    4 ar
     7    3   36 1
     8    4    5 ar
     9    4    7 1
    10    5    6 ar
    11    5   37 1
    12    6   38 1
    13    7   16 1
    14    7    8 1
    15    8    9 1
    16    8   39 1
    17    8   40 1
    18    9   10 1
    19    9   41 1
    20    9   42 1
    21   10   15 ar
    22   10   11 ar
    23   11   12 ar
    24   11   43 1
    25   12   13 ar
    26   12   33 1
    27   13   14 ar
    28   13   44 1
    29   14   15 ar
    30   14   45 1
    31   15   16 1
    32   16   17 1
    33   16   46 1
    34   17   22 ar
    35   17   18 ar
    36   18   19 ar
    37   18   47 1
    38   19   20 ar
    39   19   48 1
    40   20   21 ar
    41   20   23 1
    42   21   22 ar
    43   21   49 1
    44   22   50 1
    45   23   32 1
    46   23   24 1
    47   24   25 1
    48   24   51 1
    49   24   52 1
    50   25   26 1
    51   25   53 1
    52   25   54 1
    53   26   31 1
    54   26   27 1
    55   26   67 1
    56   27   28 1
    57   27   55 1
    58   27   56 1
    59   28   29 1
    60   28   57 1
    61   28   58 1
    62   29   30 1
    63   29   59 1
    64   29   60 1
    65   30   31 1
    66   30   61 1
    67   30   62 1
    68   31   32 1
    69   31   63 1
    70   32   64 1
    71   32   65 1
    72   33   66 1
