@<TRIPOS>MOLECULE
CHEMBL215409
   37    40     0     0     0
SMALL
USER_CHARGES

@<TRIPOS>ATOM
      1 C1          0.2914    1.5320   -0.5212 C.3       1 <0>        -0.1610
      2 C2          0.2951    0.0024   -0.4888 C.3       1 <0>        -0.1060
      3 C3         -1.0818   -0.5018   -0.0518 C.3       1 <0>        -0.0929
      4 C4         -2.1425   -0.0627   -1.0587 C.3       1 <0>        -0.1016
      5 C5         -1.7572   -0.6472   -2.4249 C.3       1 <0>        -0.1599
      6 C6         -1.5675   -2.1364   -2.3395 C.2       1 <0>         0.3976
      7 O1         -1.6854   -2.8049   -3.3460 O.2       1 <0>        -0.4327
      8 C7         -1.2546   -2.7809   -1.1174 C.2       1 <0>        -0.2800
      9 C8         -1.0923   -2.0163   -0.0154 C.2       1 <0>         0.0958
     10 C9         -1.0052   -2.4099    1.3918 C.ar      1 <0>        -0.0719
     11 C10        -0.7744   -3.6696    1.9831 C.ar      1 <0>        -0.0815
     12 C11        -0.7523   -3.8589    3.3210 C.ar      1 <0>        -0.0508
     13 C12        -0.9604   -2.7822    4.2099 C.ar      1 <0>         0.1101
     14 C13        -1.1924   -1.4394    3.6533 C.ar      1 <0>        -0.1819
     15 C14        -1.2002   -1.2759    2.1978 C.ar      1 <0>        -0.0577
     16 C15        -1.3589   -0.0785    1.3612 C.2       1 <0>         0.4210
     17 O2         -1.6562    1.0356    1.7391 O.2       1 <0>        -0.4022
     18 C16        -1.3598   -0.5918    4.7267 C.2       1 <0>         0.1106
     19 N1         -1.2470   -1.3201    5.8477 N.pl3     1 <0>        -0.4179
     20 N2         -1.0033   -2.6597    5.5238 N.2       1 <0>        -0.2837
     21 H1         -1.3231   -0.9701    6.7491 H         1 <0>         0.4514
     22 C17        -1.1062   -4.2790   -1.0485 C.3       1 <0>         0.5174
     23 F1         -2.1994   -4.8251   -0.3674 F         1 <0>        -0.1730
     24 F2         -1.0556   -4.8027   -2.3448 F         1 <0>        -0.1540
     25 F3          0.0740   -4.6000   -0.3694 F         1 <0>        -0.1709
     26 H2          1.2723    1.8912   -0.8325 H         1 <0>         0.0678
     27 H3         -0.4634    1.8787   -1.2270 H         1 <0>         0.0663
     28 H4          0.0627    1.9159    0.4730 H         1 <0>         0.0658
     29 H5          0.5238   -0.3815   -1.4830 H         1 <0>         0.0875
     30 H6          1.0498   -0.3443    0.2170 H         1 <0>         0.0785
     31 H7         -3.1187   -0.4419   -0.7564 H         1 <0>         0.0839
     32 H8         -2.1695    1.0254   -1.1165 H         1 <0>         0.1044
     33 H9         -2.5465   -0.4275   -3.1438 H         1 <0>         0.1132
     34 H10        -0.8286   -0.1868   -2.7623 H         1 <0>         0.1147
     35 H11        -0.6085   -4.5200    1.3384 H         1 <0>         0.1487
     36 H12        -0.5732   -4.8480    3.7158 H         1 <0>         0.1461
     37 H13        -1.5483    0.4704    4.6748 H         1 <0>         0.1988
@<TRIPOS>BOND
     1    1    2 1
     2    1   26 1
     3    1   27 1
     4    1   28 1
     5    2    3 1
     6    2   29 1
     7    2   30 1
     8    3    9 1
     9    3   16 1
    10    3    4 1
    11    4    5 1
    12    4   31 1
    13    4   32 1
    14    5    6 1
    15    5   33 1
    16    5   34 1
    17    6    7 2
    18    6    8 1
    19    8    9 2
    20    8   22 1
    21    9   10 1
    22   10   15 ar
    23   10   11 ar
    24   11   12 ar
    25   11   35 1
    26   12   13 ar
    27   12   36 1
    28   13   14 ar
    29   13   20 2
    30   14   15 ar
    31   14   18 2
    32   15   16 1
    33   16   17 2
    34   18   37 1
    35   18   19 1
    36   19   21 1
    37   19   20 1
    38   22   23 1
    39   22   24 1
    40   22   25 1
