@<TRIPOS>MOLECULE
CHEMBL381566
   54    57     0     0     0
SMALL
USER_CHARGES

@<TRIPOS>ATOM
      1 C1          0.3074    0.2867   -0.4683 C.3       1 <0>        -0.1309
      2 C2          0.2531   -1.1822   -0.0437 C.3       1 <0>        -0.0269
      3 C3         -1.1870   -1.6921    0.0357 C.3       1 <0>        -0.1048
      4 C4         -1.9022   -1.1414    1.2676 C.3       1 <0>        -0.1140
      5 C5         -1.1521   -1.6248    2.5112 C.3       1 <0>        -0.0671
      6 C6          0.2429   -0.9926    2.4974 C.3       1 <0>        -0.0672
      7 C7          1.0010   -1.4188    1.2805 C.3       1 <0>        -0.0749
      8 C8          1.2645   -2.9355    1.2768 C.3       1 <0>        -0.1206
      9 C9          1.6327   -3.2310   -0.1957 C.3       1 <0>        -0.1457
     10 C10         1.0165   -2.0984   -1.0384 C.3       1 <0>         0.2413
     11 C11         0.0831   -2.6565   -2.0304 C.1       1 <0>        -0.2073
     12 C12        -0.6614   -3.1016   -2.8215 C.1       1 <0>        -0.1844
     13 O1          2.0475   -1.3584   -1.6953 O.3       1 <0>        -0.5417
     14 C13         0.0759    0.5324    2.4553 C.3       1 <0>        -0.1032
     15 C14        -0.8389    0.9763    3.5572 C.2       1 <0>        -0.1578
     16 C15        -1.6985    0.2019    4.1378 C.2       1 <0>        -0.0974
     17 C16        -1.8969   -1.2464    3.7769 C.3       1 <0>         0.0172
     18 C17        -1.4718   -2.1200    4.9547 C.3       1 <0>        -0.0943
     19 C18        -1.6499   -1.3568    6.2663 C.3       1 <0>        -0.1090
     20 C19        -2.8631   -0.4309    6.2044 C.3       1 <0>         0.1087
     21 H1         -3.0814   -0.0509    7.2024 H         1 <0>         0.0506
     22 C20        -2.5635    0.7449    5.2631 C.3       1 <0>        -0.1230
     23 O2         -3.9918   -1.1570    5.7138 O.3       1 <0>        -0.5498
     24 C21        -3.3681   -1.4762    3.5450 C.2       1 <0>        -0.0661
     25 C22        -4.1590   -0.4611    3.3002 C.2       1 <0>        -0.2376
     26 H2          1.2695    0.7121   -0.1829 H         1 <0>         0.0626
     27 H3          0.1853    0.3572   -1.5492 H         1 <0>         0.0573
     28 H4         -0.4940    0.8372    0.0245 H         1 <0>         0.0632
     29 H5         -1.7259   -1.3807   -0.8591 H         1 <0>         0.0624
     30 H6         -1.1780   -2.7810    0.0850 H         1 <0>         0.0631
     31 H7         -1.9006   -0.0518    1.2374 H         1 <0>         0.0693
     32 H8         -2.9285   -1.5077    1.2915 H         1 <0>         0.0705
     33 H9         -1.0443   -2.7086    2.4675 H         1 <0>         0.0734
     34 H10         0.7860   -1.2847    3.3962 H         1 <0>         0.0749
     35 H11         1.9591   -0.8995    1.2545 H         1 <0>         0.0779
     36 H12         2.0954   -3.1827    1.9377 H         1 <0>         0.0713
     37 H13         0.3668   -3.4822    1.5655 H         1 <0>         0.0729
     38 H14         2.7161   -3.2386   -0.3155 H         1 <0>         0.0799
     39 H15         1.2162   -4.1914   -0.4994 H         1 <0>         0.0714
     40 H16        -1.3272   -3.4997   -3.5291 H         1 <0>         0.2177
     41 H17         2.5605   -1.8771   -2.3300 H         1 <0>         0.3779
     42 H18         1.0493    1.0068    2.5797 H         1 <0>         0.0672
     43 H19        -0.3473    0.8238    1.4940 H         1 <0>         0.0960
     44 H20        -0.7772    2.0032    3.8858 H         1 <0>         0.0996
     45 H21        -2.0838   -3.0217    4.9753 H         1 <0>         0.0678
     46 H22        -0.4245   -2.3989    4.8384 H         1 <0>         0.0617
     47 H23        -1.7857   -2.0700    7.0793 H         1 <0>         0.0649
     48 H24        -0.7564   -0.7629    6.4585 H         1 <0>         0.0719
     49 H25        -2.0259    1.5248    5.8024 H         1 <0>         0.0715
     50 H26        -3.4932    1.1444    4.8580 H         1 <0>         0.0846
     51 H27        -4.8001   -0.6302    5.6480 H         1 <0>         0.3710
     52 H28        -3.7703   -2.4779    3.5806 H         1 <0>         0.1020
     53 H29        -3.7441    0.5273    3.1685 H         1 <0>         0.0940
     54 H30        -5.2261   -0.6125    3.2302 H         1 <0>         0.0880
@<TRIPOS>BOND
     1    1    2 1
     2    1   26 1
     3    1   27 1
     4    1   28 1
     5    2    7 1
     6    2   10 1
     7    2    3 1
     8    3    4 1
     9    3   29 1
    10    3   30 1
    11    4    5 1
    12    4   31 1
    13    4   32 1
    14    5   17 1
    15    5    6 1
    16    5   33 1
    17    6    7 1
    18    6   14 1
    19    6   34 1
    20    7    8 1
    21    7   35 1
    22    8    9 1
    23    8   36 1
    24    8   37 1
    25    9   10 1
    26    9   38 1
    27    9   39 1
    28   10   11 1
    29   10   13 1
    30   11   12 3
    31   12   40 1
    32   13   41 1
    33   14   15 1
    34   14   42 1
    35   14   43 1
    36   15   16 2
    37   15   44 1
    38   16   22 1
    39   16   17 1
    40   17   18 1
    41   17   24 1
    42   18   19 1
    43   18   45 1
    44   18   46 1
    45   19   20 1
    46   19   47 1
    47   19   48 1
    48   20   21 1
    49   20   22 1
    50   20   23 1
    51   22   49 1
    52   22   50 1
    53   23   51 1
    54   24   25 2
    55   24   52 1
    56   25   53 1
    57   25   54 1
