@<TRIPOS>MOLECULE
CHEMBL1087545
   71    76     0     0     0
SMALL
USER_CHARGES

@<TRIPOS>ATOM
      1 C1         -0.0012    1.1353    0.2629 C.ar      1 <0>        -0.0570
      2 C2          1.1489    1.9002    0.2386 C.ar      1 <0>        -0.1386
      3 C3          2.3891    1.2836    0.1581 C.ar      1 <0>         0.1193
      4 C4          2.4708   -0.1002    0.1021 C.ar      1 <0>        -0.1975
      5 C5          1.3178   -0.8606    0.1266 C.ar      1 <0>        -0.0636
      6 C6          0.0830   -0.2437    0.2069 C.ar      1 <0>        -0.1306
      7 C7         -1.1732   -1.0757    0.2340 C.3       1 <0>         0.1891
      8 H1         -2.0286   -0.4428   -0.0023 H         1 <0>         0.1334
      9 C8         -1.3524   -1.6588    1.6090 C.2       1 <0>        -0.1099
     10 C9         -0.8157   -2.8670    1.8981 C.2       1 <0>        -0.0388
     11 C10        -1.0147   -3.4614    3.2654 C.3       1 <0>        -0.1220
     12 C11        -0.1586   -2.7299    4.2976 C.3       1 <0>         0.0757
     13 O1         -0.2390   -1.3208    4.1287 O.3       1 <0>        -0.3251
     14 C12        -1.4659   -0.7789    3.9181 C.ar      1 <0>         0.1314
     15 C13        -2.0698   -0.9212    2.6574 C.ar      1 <0>        -0.0820
     16 C14        -3.3273   -0.3679    2.4218 C.ar      1 <0>        -0.0748
     17 C15        -3.9743    0.3152    3.4309 C.ar      1 <0>        -0.1478
     18 C16        -3.3772    0.4525    4.6777 C.ar      1 <0>         0.1316
     19 C17        -2.1241   -0.0945    4.9208 C.ar      1 <0>        -0.1585
     20 O2         -4.0231    1.1261    5.6652 O.3       1 <0>        -0.4956
     21 C18        -0.0666   -3.5713    0.8490 C.ar      1 <0>        -0.1305
     22 C19         0.7845   -4.6340    1.1415 C.ar      1 <0>        -0.0559
     23 C20         1.4669   -5.2632    0.1206 C.ar      1 <0>        -0.1692
     24 C21         1.3074   -4.8397   -1.1933 C.ar      1 <0>         0.1492
     25 C22         0.4604   -3.7812   -1.4934 C.ar      1 <0>        -0.1743
     26 C23        -0.2298   -3.1446   -0.4812 C.ar      1 <0>         0.1493
     27 O3         -1.0717   -2.1135   -0.7416 O.3       1 <0>        -0.2944
     28 O4          1.9853   -5.4652   -2.1909 O.3       1 <0>        -0.4959
     29 O5          3.5219    2.0339    0.1336 O.3       1 <0>        -0.3272
     30 C24         4.7636    1.3316    0.0498 C.3       1 <0>         0.0234
     31 C25         5.9176    2.3360    0.0338 C.3       1 <0>        -0.0074
     32 N1          5.9543    3.0600    1.3115 N.4       1 <0>        -0.3672
     33 C26         6.8961    4.1896    1.1885 C.3       1 <0>        -0.0034
     34 C27         6.5079    5.2418    2.1969 C.3       1 <0>        -0.1502
     35 C28         7.3310    5.1118    3.4921 C.3       1 <0>        -0.1307
     36 C29         7.5187    3.6381    3.9054 C.3       1 <0>        -0.1385
     37 C30         6.2635    2.8248    3.7184 C.3       1 <0>        -0.1341
     38 C31         6.2953    2.1627    2.3250 C.3       1 <0>        -0.0399
     39 H2         -0.9666    1.6146    0.3301 H         1 <0>         0.1374
     40 H3          1.0826    2.9773    0.2820 H         1 <0>         0.1358
     41 H4          3.4351   -0.5825    0.0390 H         1 <0>         0.1275
     42 H5          1.3809   -1.9379    0.0831 H         1 <0>         0.1335
     43 H6         -2.0650   -3.3773    3.5447 H         1 <0>         0.0865
     44 H7         -0.7319   -4.5139    3.2446 H         1 <0>         0.0953
     45 H8         -0.5052   -2.9899    5.2977 H         1 <0>         0.0653
     46 H9          0.8794   -3.0440    4.1877 H         1 <0>         0.1014
     47 H10        -3.7932   -0.4733    1.4532 H         1 <0>         0.1361
     48 H11        -4.9485    0.7451    3.2508 H         1 <0>         0.1381
     49 H12        -1.6650    0.0155    5.8921 H         1 <0>         0.1386
     50 H13        -4.5899    0.5688    6.2159 H         1 <0>         0.3977
     51 H14         0.9101   -4.9638    2.1622 H         1 <0>         0.1359
     52 H15         2.1277   -6.0879    0.3435 H         1 <0>         0.1374
     53 H16         0.3416   -3.4566   -2.5166 H         1 <0>         0.1425
     54 H17         1.5107   -6.2122   -2.5807 H         1 <0>         0.4005
     55 H18         4.8672    0.6727    0.9119 H         1 <0>         0.0869
     56 H19         4.7849    0.7391   -0.8649 H         1 <0>         0.1102
     57 H20         6.8589    1.8056   -0.1104 H         1 <0>         0.1503
     58 H21         5.7713    3.0446   -0.7813 H         1 <0>         0.1448
     59 H22         7.9108    3.8454    1.3888 H         1 <0>         0.1336
     60 H23         6.8407    4.6063    0.1828 H         1 <0>         0.1349
     61 H24         6.6762    6.2284    1.7652 H         1 <0>         0.1089
     62 H25         5.4497    5.1340    2.4349 H         1 <0>         0.0823
     63 H26         8.3103    5.5649    3.3376 H         1 <0>         0.0805
     64 H27         6.8180    5.6429    4.2938 H         1 <0>         0.0817
     65 H28         8.3154    3.2013    3.3032 H         1 <0>         0.0691
     66 H29         7.8108    3.6002    4.9549 H         1 <0>         0.0865
     67 H30         6.2105    2.0540    4.4872 H         1 <0>         0.1089
     68 H31         5.3926    3.4761    3.7927 H         1 <0>         0.0876
     69 H32         5.5923    1.3298    2.3122 H         1 <0>         0.1278
     70 H33         7.2987    1.7805    2.1371 H         1 <0>         0.1287
     71 H34         5.0339    3.4275    1.5009 H         1 <0>         0.4260
@<TRIPOS>BOND
     1    1    6 ar
     2    1    2 ar
     3    1   39 1
     4    2    3 ar
     5    2   40 1
     6    3    4 ar
     7    3   29 1
     8    4    5 ar
     9    4   41 1
    10    5    6 ar
    11    5   42 1
    12    6    7 1
    13    7    8 1
    14    7   27 1
    15    7    9 1
    16    9   15 1
    17    9   10 2
    18   10   11 1
    19   10   21 1
    20   11   12 1
    21   11   43 1
    22   11   44 1
    23   12   13 1
    24   12   45 1
    25   12   46 1
    26   13   14 1
    27   14   19 ar
    28   14   15 ar
    29   15   16 ar
    30   16   17 ar
    31   16   47 1
    32   17   18 ar
    33   17   48 1
    34   18   19 ar
    35   18   20 1
    36   19   49 1
    37   20   50 1
    38   21   26 ar
    39   21   22 ar
    40   22   23 ar
    41   22   51 1
    42   23   24 ar
    43   23   52 1
    44   24   25 ar
    45   24   28 1
    46   25   26 ar
    47   25   53 1
    48   26   27 1
    49   28   54 1
    50   29   30 1
    51   30   31 1
    52   30   55 1
    53   30   56 1
    54   31   32 1
    55   31   57 1
    56   31   58 1
    57   32   38 1
    58   32   33 1
    59   32   71 1
    60   33   34 1
    61   33   59 1
    62   33   60 1
    63   34   35 1
    64   34   61 1
    65   34   62 1
    66   35   36 1
    67   35   63 1
    68   35   64 1
    69   36   37 1
    70   36   65 1
    71   36   66 1
    72   37   38 1
    73   37   67 1
    74   37   68 1
    75   38   69 1
    76   38   70 1
