@<TRIPOS>MOLECULE
CHEMBL1082421
   35    37     0     0     0
SMALL
USER_CHARGES

@<TRIPOS>ATOM
      1 C1          1.7416    1.3654    4.1983 C.3       1 <0>        -0.1164
      2 C2          1.8696   -0.1052    3.8947 C.ar      1 <0>        -0.0472
      3 C3          3.0177   -0.7874    4.2539 C.ar      1 <0>        -0.1451
      4 C4          3.1385   -2.1364    3.9766 C.ar      1 <0>        -0.0749
      5 C5          2.1119   -2.8067    3.3399 C.ar      1 <0>        -0.1928
      6 C6          0.9587   -2.1247    2.9788 C.ar      1 <0>         0.1225
      7 C7          0.8379   -0.7716    3.2631 C.ar      1 <0>        -0.1337
      8 O1         -0.0523   -2.7814    2.3522 O.3       1 <0>        -0.2207
      9 C8          0.0578   -4.1299    2.2022 C.2       1 <0>        -0.0233
     10 C9          0.0340   -4.9823    3.3426 C.2       1 <0>         0.4081
     11 O2         -0.0841   -4.5320    4.4700 O.2       1 <0>        -0.4174
     12 C10         0.1574   -6.4306    3.1040 C.ar      1 <0>        -0.2297
     13 C11         0.1442   -7.3452    4.1583 C.ar      1 <0>        -0.0052
     14 C12         0.2606   -8.6805    3.8977 C.ar      1 <0>        -0.1658
     15 C13         0.3925   -9.1340    2.5865 C.ar      1 <0>         0.1859
     16 C14         0.4078   -8.2394    1.5299 C.ar      1 <0>        -0.1636
     17 C15         0.2900   -6.8788    1.7779 C.ar      1 <0>         0.1653
     18 O3          0.3011   -5.9863    0.7674 O.3       1 <0>        -0.1869
     19 C16         0.1843   -4.6678    0.9728 C.2       1 <0>         0.0500
     20 C17         0.2013   -3.7469   -0.2200 C.3       1 <0>         0.5326
     21 F1          0.2463   -2.4186    0.2170 F         1 <0>        -0.1356
     22 F2          1.3284   -4.0187   -1.0029 F         1 <0>        -0.1565
     23 F3         -0.9550   -3.9485   -0.9812 F         1 <0>        -0.1561
     24 O4          0.5073  -10.4645    2.3431 O.3       1 <0>        -0.4875
     25 H1          1.2966    1.4954    5.1848 H         1 <0>         0.0760
     26 H2          2.7288    1.8271    4.1812 H         1 <0>         0.0715
     27 H3          1.1068    1.8373    3.4483 H         1 <0>         0.0707
     28 H4          3.8214   -0.2653    4.7517 H         1 <0>         0.1285
     29 H5          4.0365   -2.6666    4.2575 H         1 <0>         0.1289
     30 H6          2.2069   -3.8604    3.1231 H         1 <0>         0.1152
     31 H7         -0.0604   -0.2395    2.9870 H         1 <0>         0.1358
     32 H8          0.0425   -6.9982    5.1759 H         1 <0>         0.1535
     33 H9          0.2509   -9.3894    4.7124 H         1 <0>         0.1498
     34 H10         0.5111   -8.5989    0.5167 H         1 <0>         0.1581
     35 H11        -0.3380  -10.9137    2.2063 H         1 <0>         0.4062
@<TRIPOS>BOND
     1    1    2 1
     2    1   25 1
     3    1   26 1
     4    1   27 1
     5    2    7 ar
     6    2    3 ar
     7    3    4 ar
     8    3   28 1
     9    4    5 ar
    10    4   29 1
    11    5    6 ar
    12    5   30 1
    13    6    7 ar
    14    6    8 1
    15    7   31 1
    16    8    9 1
    17    9   19 2
    18    9   10 1
    19   10   11 2
    20   10   12 1
    21   12   17 ar
    22   12   13 ar
    23   13   14 ar
    24   13   32 1
    25   14   15 ar
    26   14   33 1
    27   15   16 ar
    28   15   24 1
    29   16   17 ar
    30   16   34 1
    31   17   18 1
    32   18   19 1
    33   19   20 1
    34   20   21 1
    35   20   22 1
    36   20   23 1
    37   24   35 1
