@<TRIPOS>MOLECULE
CHEMBL211349
   45    49     0     0     0
SMALL
USER_CHARGES

@<TRIPOS>ATOM
      1 C1         -0.0187    1.5258    0.0104 C.3       1 <0>        -0.1553
      2 C2          0.0021   -0.0041    0.0020 C.3       1 <0>        -0.1040
      3 C3         -1.4333   -0.5336    0.0129 C.3       1 <0>        -0.0383
      4 C4         -2.2218   -0.0499   -1.2072 C.3       1 <0>        -0.1062
      5 C5         -1.5874   -0.6467   -2.4672 C.3       1 <0>        -0.1668
      6 C6         -1.5630   -2.1491   -2.3910 C.2       1 <0>         0.3951
      7 O1         -1.5939   -2.8015   -3.4146 O.2       1 <0>        -0.4582
      8 C7         -1.5037   -2.8150   -1.1368 C.2       1 <0>        -0.1744
      9 C8         -1.4745   -2.0537    0.0051 C.2       1 <0>         0.0474
     10 C9         -1.5147   -2.4759    1.4044 C.ar      1 <0>        -0.1285
     11 C10        -1.1540   -3.7103    2.0048 C.ar      1 <0>        -0.0486
     12 C11        -1.3159   -3.9382    3.3237 C.ar      1 <0>        -0.1110
     13 C12        -1.8566   -2.9306    4.1563 C.ar      1 <0>         0.1239
     14 C13        -2.2070   -1.6311    3.5598 C.ar      1 <0>        -0.2025
     15 C14        -1.9972   -1.4305    2.1851 C.ar      1 <0>         0.0205
     16 C15        -2.1563   -0.1913    1.3274 C.3       1 <0>        -0.0805
     17 C16        -2.7056   -0.8502    4.5916 C.2       1 <0>         0.1003
     18 N1         -2.6713   -1.5820    5.7120 N.pl3     1 <0>        -0.4213
     19 N2         -2.1515   -2.8520    5.4391 N.2       1 <0>        -0.3038
     20 H1         -2.9635   -1.2764    6.5850 H         1 <0>         0.4470
     21 C17        -1.4741   -4.2947   -1.0636 C.ar      1 <0>        -0.0226
     22 C18        -0.3516   -4.9482   -0.5561 C.ar      1 <0>        -0.1110
     23 C19        -0.3301   -6.3263   -0.4900 C.ar      1 <0>        -0.1221
     24 C20        -1.4192   -7.0595   -0.9260 C.ar      1 <0>        -0.1177
     25 C21        -2.5355   -6.4169   -1.4309 C.ar      1 <0>        -0.1179
     26 C22        -2.5710   -5.0391   -1.4967 C.ar      1 <0>        -0.0937
     27 H2          1.0039    1.9031    0.0027 H         1 <0>         0.0599
     28 H3         -0.5459    1.8868   -0.8726 H         1 <0>         0.0612
     29 H4         -0.5289    1.8773    0.9072 H         1 <0>         0.0584
     30 H5          0.5123   -0.3556   -0.8948 H         1 <0>         0.0714
     31 H6          0.5293   -0.3651    0.8851 H         1 <0>         0.0715
     32 H7         -3.2577   -0.3796   -1.1277 H         1 <0>         0.0752
     33 H8         -2.1845    1.0383   -1.2590 H         1 <0>         0.0870
     34 H9         -2.1654   -0.3409   -3.3393 H         1 <0>         0.0976
     35 H10        -0.5673   -0.2757   -2.5656 H         1 <0>         0.1028
     36 H11        -0.7374   -4.4913    1.3861 H         1 <0>         0.1397
     37 H12        -1.0328   -4.8915    3.7450 H         1 <0>         0.1335
     38 H13        -1.6857    0.6665    1.8078 H         1 <0>         0.0944
     39 H14        -3.2114    0.0083    1.1401 H         1 <0>         0.0952
     40 H15        -3.0580    0.1671    4.5065 H         1 <0>         0.1920
     41 H16         0.4994   -4.3768   -0.2157 H         1 <0>         0.1227
     42 H17         0.5388   -6.8335   -0.0974 H         1 <0>         0.1244
     43 H18        -1.3978   -8.1380   -0.8723 H         1 <0>         0.1220
     44 H19        -3.3826   -6.9947   -1.7701 H         1 <0>         0.1227
     45 H20        -3.4447   -4.5383   -1.8869 H         1 <0>         0.1184
@<TRIPOS>BOND
     1    1    2 1
     2    1   27 1
     3    1   28 1
     4    1   29 1
     5    2    3 1
     6    2   30 1
     7    2   31 1
     8    3    9 1
     9    3   16 1
    10    3    4 1
    11    4    5 1
    12    4   32 1
    13    4   33 1
    14    5    6 1
    15    5   34 1
    16    5   35 1
    17    6    7 2
    18    6    8 1
    19    8    9 2
    20    8   21 1
    21    9   10 1
    22   10   15 ar
    23   10   11 ar
    24   11   12 ar
    25   11   36 1
    26   12   13 ar
    27   12   37 1
    28   13   14 ar
    29   13   19 2
    30   14   15 ar
    31   14   17 2
    32   15   16 1
    33   16   38 1
    34   16   39 1
    35   17   40 1
    36   17   18 1
    37   18   20 1
    38   18   19 1
    39   21   26 ar
    40   21   22 ar
    41   22   23 ar
    42   22   41 1
    43   23   24 ar
    44   23   42 1
    45   24   25 ar
    46   24   43 1
    47   25   26 ar
    48   25   44 1
    49   26   45 1
