@<TRIPOS>MOLECULE
CHEMBL36037
   59    63     0     0     0
SMALL
USER_CHARGES

@<TRIPOS>ATOM
      1 C1         -0.0184    1.5028    0.0103 C.3       1 <0>        -0.1488
      2 C2          0.0021   -0.0041    0.0020 C.2       1 <0>         0.4568
      3 O1          0.0203   -0.6138    1.0450 O.2       1 <0>        -0.5125
      4 O2          0.0001   -0.6689   -1.1641 O.3       1 <0>        -0.3411
      5 C3          0.0201   -2.0962   -1.0971 C.3       1 <0>         0.0854
      6 H1          0.5342   -2.4210   -0.1925 H         1 <0>         0.0883
      7 C4         -1.4180   -2.6467   -1.1147 C.3       1 <0>        -0.1384
      8 C5         -1.5469   -3.5038   -2.3950 C.3       1 <0>        -0.1238
      9 C6         -0.4462   -2.9430   -3.3144 C.3       1 <0>        -0.0764
     10 C7          0.7270   -2.6786   -2.3501 C.3       1 <0>        -0.0451
     11 C8          1.3835   -3.9899   -1.9139 C.3       1 <0>        -0.1120
     12 C9          1.7882   -4.8313   -3.1225 C.3       1 <0>        -0.1095
     13 C10         0.5227   -5.1793   -3.9111 C.3       1 <0>        -0.0553
     14 C11        -0.0905   -3.8855   -4.4370 C.3       1 <0>        -0.0455
     15 C12        -1.3170   -4.2100   -5.2960 C.3       1 <0>        -0.1293
     16 H2         -1.7915   -3.2868   -5.6288 H         1 <0>         0.1262
     17 C13        -0.8312   -5.0008   -6.4938 C.2       1 <0>         0.4072
     18 O3         -1.2686   -4.7867   -7.6042 O.2       1 <0>        -0.4293
     19 C14         0.1922   -6.0400   -6.2656 C.ar      1 <0>        -0.1453
     20 C15         0.8488   -6.1251   -5.0318 C.ar      1 <0>        -0.0256
     21 C16         1.8113   -7.0986   -4.8384 C.ar      1 <0>        -0.1139
     22 C17         2.1253   -7.9842   -5.8518 C.ar      1 <0>        -0.1052
     23 C18         1.4776   -7.9083   -7.0777 C.ar      1 <0>         0.0920
     24 C19         0.5069   -6.9372   -7.2889 C.ar      1 <0>        -0.0821
     25 O4          1.7896   -8.7848   -8.0685 O.3       1 <0>        -0.4946
     26 S1         -2.4973   -5.1998   -4.3380 S.3       1 <0>        -0.0325
     27 C20        -3.8897   -5.3548   -5.4065 C.ar      1 <0>        -0.1008
     28 C21        -3.8682   -4.7710   -6.6674 C.ar      1 <0>        -0.1324
     29 C22        -4.9609   -4.8947   -7.5026 C.ar      1 <0>        -0.0681
     30 C23        -6.0764   -5.5991   -7.0852 C.ar      1 <0>        -0.0943
     31 C24        -6.1010   -6.1816   -5.8302 C.ar      1 <0>        -0.0749
     32 C25        -5.0095   -6.0660   -4.9923 C.ar      1 <0>        -0.0927
     33 Br1        -7.5708   -5.7655   -8.2319 Br        1 <0>        -0.0469
     34 C26         1.7350   -1.6919   -2.9428 C.3       1 <0>        -0.1336
     35 H3          1.0042    1.8801    0.0026 H         1 <0>         0.1046
     36 H4         -0.5455    1.8639   -0.8728 H         1 <0>         0.0939
     37 H5         -0.5286    1.8543    0.9071 H         1 <0>         0.1023
     38 H6         -1.5925   -3.2637   -0.2332 H         1 <0>         0.0761
     39 H7         -2.1325   -1.8240   -1.1425 H         1 <0>         0.0752
     40 H8         -1.3633   -4.5551   -2.1734 H         1 <0>         0.0764
     41 H9         -2.5295   -3.3718   -2.8480 H         1 <0>         0.0920
     42 H10        -0.7771   -1.9926   -3.7330 H         1 <0>         0.0866
     43 H11         2.2703   -3.7659   -1.3211 H         1 <0>         0.0718
     44 H12         0.6801   -4.5562   -1.3035 H         1 <0>         0.0718
     45 H13         2.4702   -4.2624   -3.7545 H         1 <0>         0.0745
     46 H14         2.2751   -5.7468   -2.7865 H         1 <0>         0.0784
     47 H15        -0.1976   -5.6507   -3.2425 H         1 <0>         0.1033
     48 H16         0.6439   -3.3956   -5.0762 H         1 <0>         0.0940
     49 H17         2.3215   -7.1672   -3.8890 H         1 <0>         0.1391
     50 H18         2.8794   -8.7401   -5.6893 H         1 <0>         0.1364
     51 H19         0.0001   -6.8733   -8.2405 H         1 <0>         0.1398
     52 H20         1.2579   -9.5924   -8.0609 H         1 <0>         0.3937
     53 H21        -2.9980   -4.2209   -6.9936 H         1 <0>         0.1494
     54 H22        -4.9449   -4.4410   -8.4825 H         1 <0>         0.1357
     55 H23        -6.9731   -6.7307   -5.5073 H         1 <0>         0.1383
     56 H24        -5.0275   -6.5246   -4.0147 H         1 <0>         0.1364
     57 H25         2.5100   -1.4782   -2.2068 H         1 <0>         0.0566
     58 H26         2.1892   -2.1272   -3.8329 H         1 <0>         0.0594
     59 H27         1.2237   -0.7673   -3.2110 H         1 <0>         0.0682
@<TRIPOS>BOND
     1    1    2 1
     2    1   35 1
     3    1   36 1
     4    1   37 1
     5    2    3 2
     6    2    4 1
     7    4    5 1
     8    5    6 1
     9    5   10 1
    10    5    7 1
    11    7    8 1
    12    7   38 1
    13    7   39 1
    14    8    9 1
    15    8   40 1
    16    8   41 1
    17    9   14 1
    18    9   10 1
    19    9   42 1
    20   10   11 1
    21   10   34 1
    22   11   12 1
    23   11   43 1
    24   11   44 1
    25   12   13 1
    26   12   45 1
    27   12   46 1
    28   13   20 1
    29   13   14 1
    30   13   47 1
    31   14   15 1
    32   14   48 1
    33   15   16 1
    34   15   17 1
    35   15   26 1
    36   17   18 2
    37   17   19 1
    38   19   24 ar
    39   19   20 ar
    40   20   21 ar
    41   21   22 ar
    42   21   49 1
    43   22   23 ar
    44   22   50 1
    45   23   24 ar
    46   23   25 1
    47   24   51 1
    48   25   52 1
    49   26   27 1
    50   27   32 ar
    51   27   28 ar
    52   28   29 ar
    53   28   53 1
    54   29   30 ar
    55   29   54 1
    56   30   31 ar
    57   30   33 1
    58   31   32 ar
    59   31   55 1
    60   32   56 1
    61   34   57 1
    62   34   58 1
    63   34   59 1
