@<TRIPOS>MOLECULE
CHEMBL73989
   30    33     0     0     0
SMALL
USER_CHARGES

@<TRIPOS>ATOM
      1 C1         -0.0167    1.3822    0.0096 C.ar      1 <0>        -0.1562
      2 C2          1.1482    2.1269    0.0025 C.ar      1 <0>        -0.0353
      3 C3          2.3618    1.4225   -0.0209 C.ar      1 <0>        -0.0882
      4 C4          2.3711    0.0103   -0.0052 C.ar      1 <0>        -0.0490
      5 C5          1.2018   -0.7190   -0.0035 C.ar      1 <0>        -0.1300
      6 C6          0.0021   -0.0041    0.0020 C.ar      1 <0>         0.1364
      7 O1         -1.1739   -0.6828   -0.0002 O.3       1 <0>        -0.4980
      8 C7          3.7960   -0.4717    0.0394 C.3       1 <0>        -0.0732
      9 C8          4.6222    0.7469   -0.4130 C.3       1 <0>         0.0725
     10 C9          3.7265    1.9243   -0.0394 C.2       1 <0>         0.1670
     11 N1          4.1948    3.1150    0.2023 N.2       1 <0>        -0.4251
     12 C10         5.5581    3.2535    0.2857 C.ar      1 <0>        -0.0003
     13 C11         6.1332    4.5247    0.2984 C.ar      1 <0>        -0.0366
     14 C12         7.5031    4.6575    0.3816 C.ar      1 <0>        -0.1610
     15 C13         8.3121    3.5302    0.4523 C.ar      1 <0>         0.1464
     16 C14         7.7487    2.2621    0.4408 C.ar      1 <0>        -0.1595
     17 C15         6.3757    2.1171    0.3596 C.ar      1 <0>         0.1033
     18 O2          5.8229    0.8694    0.3541 O.3       1 <0>        -0.2937
     19 O3          9.6613    3.6701    0.5325 O.3       1 <0>        -0.4933
     20 H1         -0.9674    1.8945    0.0261 H         1 <0>         0.1361
     21 H2          1.1252    3.2066    0.0141 H         1 <0>         0.1441
     22 H3          1.2127   -1.7989   -0.0059 H         1 <0>         0.1459
     23 H4         -1.5157   -0.8746   -0.8842 H         1 <0>         0.3969
     24 H5          4.0688   -0.7620    1.0540 H         1 <0>         0.1084
     25 H6          3.9382   -1.3054   -0.6481 H         1 <0>         0.1039
     26 H7          4.8350    0.7103   -1.4814 H         1 <0>         0.1111
     27 H8          5.5067    5.4026    0.2428 H         1 <0>         0.1438
     28 H9          7.9487    5.6412    0.3915 H         1 <0>         0.1418
     29 H10         8.3819    1.3889    0.4960 H         1 <0>         0.1437
     30 H11         9.9977    3.7270    1.4373 H         1 <0>         0.3980
@<TRIPOS>BOND
     1    1    6 ar
     2    1    2 ar
     3    1   20 1
     4    2    3 ar
     5    2   21 1
     6    3   10 1
     7    3    4 ar
     8    4    5 ar
     9    4    8 1
    10    5    6 ar
    11    5   22 1
    12    6    7 1
    13    7   23 1
    14    8    9 1
    15    8   24 1
    16    8   25 1
    17    9   18 1
    18    9   10 1
    19    9   26 1
    20   10   11 2
    21   11   12 1
    22   12   17 ar
    23   12   13 ar
    24   13   14 ar
    25   13   27 1
    26   14   15 ar
    27   14   28 1
    28   15   16 ar
    29   15   19 1
    30   16   17 ar
    31   16   29 1
    32   17   18 1
    33   19   30 1
