@<TRIPOS>MOLECULE
CHEMBL399143
   85    91     0     0     0
SMALL
USER_CHARGES

@<TRIPOS>ATOM
      1 C1         -0.0187    1.5258    0.0104 C.3       1 <0>        -0.1382
      2 C2          0.0021   -0.0041    0.0020 C.3       1 <0>        -0.0441
      3 C3         -1.4064   -0.5323    0.1772 C.3       1 <0>        -0.0990
      4 C4         -1.9756    0.0797    1.4714 C.3       1 <0>        -0.1138
      5 C5         -1.0851   -0.2532    2.6598 C.3       1 <0>        -0.0416
      6 H1         -1.0806   -1.3360    2.7843 H         1 <0>         0.0762
      7 C6         -1.6005    0.3571    3.9311 C.ar      1 <0>        -0.0774
      8 C7         -2.9742    0.4710    4.0964 C.ar      1 <0>        -0.1030
      9 C8         -3.5002    1.0150    5.2487 C.ar      1 <0>        -0.1472
     10 C9         -2.6480    1.4512    6.2530 C.ar      1 <0>         0.1026
     11 C10        -1.2787    1.3413    6.0863 C.ar      1 <0>        -0.1479
     12 C11        -0.7495    0.7994    4.9225 C.ar      1 <0>        -0.0574
     13 C12         0.7502    0.7384    4.8002 C.3       1 <0>        -0.0825
     14 C13         1.1786   -0.1827    3.6588 C.3       1 <0>        -0.1133
     15 C14         0.3612    0.2021    2.4252 C.3       1 <0>        -0.0745
     16 H2          0.3879    1.2814    2.2748 H         1 <0>         0.0879
     17 C15         0.8604   -0.5199    1.1907 C.3       1 <0>        -0.0806
     18 H3          0.7388   -1.5961    1.3133 H         1 <0>         0.0779
     19 C16         2.2767   -0.1707    0.7204 C.3       1 <0>        -0.1118
     20 C17         2.2489   -0.5546   -0.7844 C.3       1 <0>        -0.1439
     21 C18         0.7638   -0.4984   -1.2221 C.3       1 <0>         0.2564
     22 C19         0.2945   -1.8392   -1.6079 C.1       1 <0>        -0.2038
     23 C20        -0.0798   -2.9086   -1.9155 C.1       1 <0>        -0.1601
     24 C21        -0.5491   -4.2494   -2.3013 C.3       1 <0>        -0.0090
     25 C22         0.2268   -4.7272   -3.5303 C.3       1 <0>        -0.1146
     26 C23        -0.2610   -6.1209   -3.9313 C.3       1 <0>        -0.1162
     27 C24         0.5148   -6.5987   -5.1604 C.3       1 <0>        -0.0094
     28 C25         0.0456   -7.9395   -5.5461 C.1       1 <0>        -0.1329
     29 C26        -0.3287   -9.0089   -5.8538 C.1       1 <0>        -0.1513
     30 C27        -0.7853  -10.3133   -6.2290 C.ar      1 <0>         0.0035
     31 C28        -1.7957  -10.9376   -5.5018 C.ar      1 <0>        -0.0378
     32 C29        -2.2421  -12.1979   -5.8584 C.ar      1 <0>        -0.1435
     33 C30        -1.6923  -12.8544   -6.9400 C.ar      1 <0>        -0.0224
     34 C31        -0.6800  -12.2455   -7.6808 C.ar      1 <0>        -0.2201
     35 C32        -0.2216  -10.9665   -7.3340 C.ar      1 <0>         0.1641
     36 O1          0.7545  -10.3836   -8.0584 O.3       1 <0>        -0.2131
     37 C33         1.3149  -10.9819   -9.1206 C.2       1 <0>         0.2119
     38 C34         0.9403  -12.2190   -9.5449 C.2       1 <0>        -0.3177
     39 C35        -0.0689  -12.9198   -8.8439 C.2       1 <0>         0.4239
     40 O2         -0.4300  -14.0309   -9.1948 O.2       1 <0>        -0.4662
     41 C36         2.3784  -10.2702   -9.8574 C.ar      1 <0>        -0.0754
     42 C37         2.9778  -10.8632  -10.9708 C.ar      1 <0>        -0.0789
     43 C38         3.9707  -10.1927  -11.6543 C.ar      1 <0>        -0.1207
     44 C39         4.3731   -8.9355  -11.2393 C.ar      1 <0>        -0.0918
     45 C40         3.7838   -8.3422  -10.1368 C.ar      1 <0>        -0.1227
     46 C41         2.7854   -8.9986   -9.4476 C.ar      1 <0>        -0.0776
     47 O3          0.6019    0.4156   -2.3086 O.3       1 <0>        -0.5406
     48 O4         -3.1559    1.9844    7.3952 O.3       1 <0>        -0.5003
     49 H4          1.0033    1.9032   -0.0250 H         1 <0>         0.0576
     50 H5         -0.5695    1.8864   -0.8582 H         1 <0>         0.0636
     51 H6         -0.5045    1.8775    0.9205 H         1 <0>         0.0642
     52 H7         -2.0207   -0.2365   -0.6732 H         1 <0>         0.0669
     53 H8         -1.3862   -1.6190    0.2597 H         1 <0>         0.0643
     54 H9         -2.0364    1.1623    1.3603 H         1 <0>         0.0714
     55 H10        -2.9745   -0.3191    1.6483 H         1 <0>         0.0658
     56 H11        -3.6371    0.1306    3.3147 H         1 <0>         0.1273
     57 H12        -4.5700    1.1016    5.3689 H         1 <0>         0.1273
     58 H13        -0.6155    1.6804    6.8684 H         1 <0>         0.1260
     59 H14         1.1338    1.7413    4.6125 H         1 <0>         0.0779
     60 H15         1.1695    0.3666    5.7351 H         1 <0>         0.0749
     61 H16         2.2408   -0.0469    3.4558 H         1 <0>         0.0725
     62 H17         0.9854   -1.2202    3.9313 H         1 <0>         0.0662
     63 H18         2.4720    0.8946    0.8429 H         1 <0>         0.0754
     64 H19         3.0180   -0.7638    1.2560 H         1 <0>         0.0705
     65 H20         2.8367    0.1577   -1.3632 H         1 <0>         0.0803
     66 H21         2.6412   -1.5624   -0.9207 H         1 <0>         0.0717
     67 H22        -0.3857   -4.9428   -1.4763 H         1 <0>         0.0870
     68 H23        -1.6126   -4.2084   -2.5363 H         1 <0>         0.0877
     69 H24         0.0634   -4.0338   -4.3553 H         1 <0>         0.0695
     70 H25         1.2903   -4.7682   -3.2953 H         1 <0>         0.0697
     71 H26        -0.0977   -6.8143   -3.1063 H         1 <0>         0.0699
     72 H27        -1.3246   -6.0799   -4.1663 H         1 <0>         0.0707
     73 H28         0.3515   -5.9053   -5.9854 H         1 <0>         0.0919
     74 H29         1.5784   -6.6397   -4.9254 H         1 <0>         0.0918
     75 H30        -2.2340  -10.4343   -4.6527 H         1 <0>         0.1454
     76 H31        -3.0260  -12.6711   -5.2858 H         1 <0>         0.1442
     77 H32        -2.0451  -13.8382   -7.2122 H         1 <0>         0.1476
     78 H33         1.4163  -12.6664  -10.4049 H         1 <0>         0.1638
     79 H34         2.6650  -11.8445  -11.2955 H         1 <0>         0.1363
     80 H35         4.4354  -10.6502  -12.5153 H         1 <0>         0.1348
     81 H36         5.1509   -8.4150  -11.7782 H         1 <0>         0.1307
     82 H37         4.1029   -7.3609   -9.8181 H         1 <0>         0.1318
     83 H38         2.3227   -8.5323   -8.5904 H         1 <0>         0.1333
     84 H39         1.0650    0.1529   -3.1159 H         1 <0>         0.3777
     85 H40        -3.3231    1.3350    8.0920 H         1 <0>         0.3901
@<TRIPOS>BOND
     1    1    2 1
     2    1   49 1
     3    1   50 1
     4    1   51 1
     5    2   17 1
     6    2   21 1
     7    2    3 1
     8    3    4 1
     9    3   52 1
    10    3   53 1
    11    4    5 1
    12    4   54 1
    13    4   55 1
    14    5    6 1
    15    5   15 1
    16    5    7 1
    17    7   12 ar
    18    7    8 ar
    19    8    9 ar
    20    8   56 1
    21    9   10 ar
    22    9   57 1
    23   10   11 ar
    24   10   48 1
    25   11   12 ar
    26   11   58 1
    27   12   13 1
    28   13   14 1
    29   13   59 1
    30   13   60 1
    31   14   15 1
    32   14   61 1
    33   14   62 1
    34   15   16 1
    35   15   17 1
    36   17   18 1
    37   17   19 1
    38   19   20 1
    39   19   63 1
    40   19   64 1
    41   20   21 1
    42   20   65 1
    43   20   66 1
    44   21   22 1
    45   21   47 1
    46   22   23 3
    47   23   24 1
    48   24   25 1
    49   24   67 1
    50   24   68 1
    51   25   26 1
    52   25   69 1
    53   25   70 1
    54   26   27 1
    55   26   71 1
    56   26   72 1
    57   27   28 1
    58   27   73 1
    59   27   74 1
    60   28   29 3
    61   29   30 1
    62   30   35 ar
    63   30   31 ar
    64   31   32 ar
    65   31   75 1
    66   32   33 ar
    67   32   76 1
    68   33   34 ar
    69   33   77 1
    70   34   39 1
    71   34   35 ar
    72   35   36 1
    73   36   37 1
    74   37   38 2
    75   37   41 1
    76   38   39 1
    77   38   78 1
    78   39   40 2
    79   41   46 ar
    80   41   42 ar
    81   42   43 ar
    82   42   79 1
    83   43   44 ar
    84   43   80 1
    85   44   45 ar
    86   44   81 1
    87   45   46 ar
    88   45   82 1
    89   46   83 1
    90   47   84 1
    91   48   85 1
