@<TRIPOS>MOLECULE
CHEMBL234460
   32    34     0     0     0
SMALL
USER_CHARGES

@<TRIPOS>ATOM
      1 C1         -0.0167    1.3784    0.0096 C.ar      1 <0>        -0.0888
      2 C2          1.1695    2.0865    0.0021 C.ar      1 <0>        -0.1447
      3 C3          2.3802    1.4093   -0.0131 C.ar      1 <0>         0.1113
      4 C4          2.3963    0.0221   -0.0206 C.ar      1 <0>        -0.1459
      5 C5          1.2074   -0.6814   -0.0130 C.ar      1 <0>        -0.0754
      6 C6          0.0021   -0.0041    0.0020 C.ar      1 <0>        -0.0973
      7 C7         -1.2934   -0.7740    0.0107 C.3       1 <0>         0.1365
      8 H1         -2.0884   -0.1596   -0.4119 H         1 <0>         0.0833
      9 C8         -1.6523   -1.1651    1.4500 C.3       1 <0>        -0.1488
     10 C9         -3.0232   -1.8458    1.4354 C.3       1 <0>        -0.0792
     11 C10        -3.0569   -2.8968    0.3548 C.ar      1 <0>        -0.1443
     12 C11        -4.0382   -3.8729    0.4065 C.ar      1 <0>        -0.1097
     13 C12        -4.1014   -4.8522   -0.5712 C.ar      1 <0>         0.0733
     14 C13        -3.1786   -4.8548   -1.6070 C.ar      1 <0>        -0.1114
     15 C14        -2.2002   -3.8837   -1.6587 C.ar      1 <0>        -0.1302
     16 C15        -2.1340   -2.9012   -0.6759 C.ar      1 <0>         0.1257
     17 O1         -1.1481   -1.9685   -0.7585 O.3       1 <0>        -0.3071
     18 O2         -5.0658   -5.8093   -0.5155 O.3       1 <0>        -0.4971
     19 O3          3.5484    2.1036   -0.0209 O.3       1 <0>        -0.4993
     20 H2         -0.9594    1.9052    0.0259 H         1 <0>         0.1297
     21 H3          1.1543    3.1664    0.0076 H         1 <0>         0.1327
     22 H4          3.3375   -0.5074   -0.0328 H         1 <0>         0.1316
     23 H5          1.2194   -1.7613   -0.0189 H         1 <0>         0.1320
     24 H6         -0.9040   -1.8544    1.8409 H         1 <0>         0.0810
     25 H7         -1.6920   -0.2724    2.0742 H         1 <0>         0.0890
     26 H8         -3.2060   -2.3140    2.4026 H         1 <0>         0.0869
     27 H9         -3.7957   -1.1015    1.2417 H         1 <0>         0.0815
     28 H10        -4.7569   -3.8707    1.2127 H         1 <0>         0.1313
     29 H11        -3.2259   -5.6161   -2.3715 H         1 <0>         0.1360
     30 H12        -1.4823   -3.8863   -2.4655 H         1 <0>         0.1362
     31 H13        -5.8814   -5.5733   -0.9784 H         1 <0>         0.3885
     32 H14         3.8951    2.3001    0.8601 H         1 <0>         0.3929
@<TRIPOS>BOND
     1    1    6 ar
     2    1    2 ar
     3    1   20 1
     4    2    3 ar
     5    2   21 1
     6    3    4 ar
     7    3   19 1
     8    4    5 ar
     9    4   22 1
    10    5    6 ar
    11    5   23 1
    12    6    7 1
    13    7    8 1
    14    7   17 1
    15    7    9 1
    16    9   10 1
    17    9   24 1
    18    9   25 1
    19   10   11 1
    20   10   26 1
    21   10   27 1
    22   11   16 ar
    23   11   12 ar
    24   12   13 ar
    25   12   28 1
    26   13   14 ar
    27   13   18 1
    28   14   15 ar
    29   14   29 1
    30   15   16 ar
    31   15   30 1
    32   16   17 1
    33   18   31 1
    34   19   32 1
