@<TRIPOS>MOLECULE
CHEMBL83623
   59    63     0     0     0
SMALL
USER_CHARGES

@<TRIPOS>ATOM
      1 C1          0.2586    1.4348    0.1231 C.2       1 <0>        -0.1619
      2 C2          1.4071    2.2034    0.0930 C.2       1 <0>        -0.1326
      3 C3          2.6128    1.5840    0.0965 C.2       1 <0>        -0.1555
      4 S1          2.1433   -0.1378    0.1434 S.3       1 <0>         0.0876
      5 C4          0.3720    0.0844    0.1552 C.2       1 <0>        -0.1742
      6 C5          3.9917    2.1913    0.0677 C.3       1 <0>        -0.0185
      7 H1          3.9186    3.2785    0.0414 H         1 <0>         0.1476
      8 C6          4.7616    1.6871   -1.1644 C.3       1 <0>         0.1466
      9 H2          5.7954    2.0287   -1.1132 H         1 <0>         0.1003
     10 O1          4.7308    0.2681   -1.1815 O.3       1 <0>        -0.3038
     11 C7          5.2328   -0.4725   -0.1656 C.ar      1 <0>         0.1214
     12 C8          5.6216   -1.7792   -0.4513 C.ar      1 <0>        -0.1102
     13 C9          6.1268   -2.5953    0.5397 C.ar      1 <0>        -0.1065
     14 C10         6.2532   -2.1219    1.8375 C.ar      1 <0>         0.0994
     15 C11         5.8756   -0.8220    2.1323 C.ar      1 <0>        -0.0884
     16 C12         5.3736    0.0021    1.1336 C.ar      1 <0>        -0.1422
     17 S2          4.9320    1.6673    1.5359 S.3       1 <0>        -0.0827
     18 O2          6.7446   -2.9294    2.8150 O.3       1 <0>        -0.4915
     19 C13         4.1153    2.2221   -2.4162 C.ar      1 <0>        -0.1039
     20 C14         2.9768    1.6184   -2.9173 C.ar      1 <0>        -0.0385
     21 C15         2.3827    2.1066   -4.0649 C.ar      1 <0>        -0.1418
     22 C16         2.9291    3.2040   -4.7145 C.ar      1 <0>         0.1246
     23 C17         4.0712    3.8082   -4.2094 C.ar      1 <0>        -0.2033
     24 C18         4.6586    3.3193   -3.0586 C.ar      1 <0>        -0.0581
     25 O3          2.3468    3.6859   -5.8439 O.3       1 <0>        -0.3271
     26 C19         2.9639    4.8182   -6.4595 C.3       1 <0>         0.0250
     27 C20         2.1730    5.2141   -7.7080 C.3       1 <0>        -0.0011
     28 N1          0.8218    5.6382   -7.3177 N.4       1 <0>        -0.3843
     29 C21         0.0156    5.8681   -8.5226 C.3       1 <0>        -0.0070
     30 C22        -1.4156    6.2315   -8.1215 C.3       1 <0>        -0.1468
     31 C23        -1.3937    7.5039   -7.2696 C.3       1 <0>        -0.1390
     32 C24        -0.4902    7.2771   -6.0541 C.3       1 <0>        -0.1454
     33 C25         0.9068    6.8750   -6.5318 C.3       1 <0>        -0.0130
     34 H3         -0.7145    1.9033    0.1255 H         1 <0>         0.1340
     35 H4          1.3447    3.2812    0.0668 H         1 <0>         0.1298
     36 H5         -0.4071   -0.6631    0.1814 H         1 <0>         0.1869
     37 H6          5.5263   -2.1574   -1.4584 H         1 <0>         0.1410
     38 H7          6.4246   -3.6064    0.3044 H         1 <0>         0.1425
     39 H8          5.9715   -0.4487    3.1412 H         1 <0>         0.1394
     40 H9          7.7052   -2.8844    2.9164 H         1 <0>         0.3940
     41 H10         2.5518    0.7641   -2.4112 H         1 <0>         0.1404
     42 H11         1.4938    1.6343   -4.4563 H         1 <0>         0.1351
     43 H12         4.4985    4.6626   -4.7133 H         1 <0>         0.1317
     44 H13         5.5452    3.7921   -2.6625 H         1 <0>         0.1355
     45 H14         2.9758    5.6520   -5.7575 H         1 <0>         0.0869
     46 H15         3.9861    4.5662   -6.7417 H         1 <0>         0.1103
     47 H16         2.6799    6.0359   -8.2138 H         1 <0>         0.1493
     48 H17         2.1053    4.3595   -8.3813 H         1 <0>         0.1429
     49 H18         0.4495    6.6851   -9.0991 H         1 <0>         0.1293
     50 H19         0.0037    4.9627   -9.1294 H         1 <0>         0.1312
     51 H20        -2.0121    6.4035   -9.0174 H         1 <0>         0.1132
     52 H21        -1.8506    5.4150   -7.5451 H         1 <0>         0.0880
     53 H22        -1.0063    8.3327   -7.8622 H         1 <0>         0.0822
     54 H23        -2.4047    7.7354   -6.9342 H         1 <0>         0.0948
     55 H24        -0.4253    8.1966   -5.4723 H         1 <0>         0.1122
     56 H25        -0.9060    6.4823   -5.4348 H         1 <0>         0.0878
     57 H26         1.5527    6.7129   -5.6688 H         1 <0>         0.1271
     58 H27         1.3216    7.6705   -7.1507 H         1 <0>         0.1303
     59 H28         0.3915    4.9156   -6.7603 H         1 <0>         0.4294
@<TRIPOS>BOND
     1    1    5 2
     2    1    2 1
     3    1   34 1
     4    2    3 2
     5    2   35 1
     6    3    4 1
     7    3    6 1
     8    4    5 1
     9    5   36 1
    10    6    7 1
    11    6   17 1
    12    6    8 1
    13    8    9 1
    14    8   10 1
    15    8   19 1
    16   10   11 1
    17   11   16 ar
    18   11   12 ar
    19   12   13 ar
    20   12   37 1
    21   13   14 ar
    22   13   38 1
    23   14   15 ar
    24   14   18 1
    25   15   16 ar
    26   15   39 1
    27   16   17 1
    28   18   40 1
    29   19   24 ar
    30   19   20 ar
    31   20   21 ar
    32   20   41 1
    33   21   22 ar
    34   21   42 1
    35   22   23 ar
    36   22   25 1
    37   23   24 ar
    38   23   43 1
    39   24   44 1
    40   25   26 1
    41   26   27 1
    42   26   45 1
    43   26   46 1
    44   27   28 1
    45   27   47 1
    46   27   48 1
    47   28   33 1
    48   28   29 1
    49   28   59 1
    50   29   30 1
    51   29   49 1
    52   29   50 1
    53   30   31 1
    54   30   51 1
    55   30   52 1
    56   31   32 1
    57   31   53 1
    58   31   54 1
    59   32   33 1
    60   32   55 1
    61   32   56 1
    62   33   57 1
    63   33   58 1
