@<TRIPOS>MOLECULE
CHEMBL423035
   64    68     0     0     0
SMALL
USER_CHARGES

@<TRIPOS>ATOM
      1 C1         -1.5640   -1.0542    3.5581 C.ar      1 <0>        -0.0734
      2 C2         -1.1901   -1.3774    4.8437 C.ar      1 <0>        -0.1442
      3 C3         -0.8568   -2.6880    5.1639 C.ar      1 <0>         0.1252
      4 C4         -0.8990   -3.6780    4.1897 C.ar      1 <0>        -0.1412
      5 C5         -1.2717   -3.3641    2.9014 C.ar      1 <0>        -0.0740
      6 C6         -1.6084   -2.0470    2.5747 C.ar      1 <0>        -0.0428
      7 C7         -2.0084   -1.7061    1.1975 C.2       1 <0>        -0.0551
      8 C8         -1.3868   -2.0613    0.0065 C.2       1 <0>        -0.1660
      9 C9         -1.9865   -1.5934   -1.2459 C.ar      1 <0>        -0.0757
     10 C10        -1.5401   -1.8237   -2.5668 C.ar      1 <0>        -0.0617
     11 C11        -2.2224   -1.3087   -3.6375 C.ar      1 <0>        -0.1340
     12 C12        -3.3729   -0.5456   -3.4595 C.ar      1 <0>         0.1415
     13 C13        -3.8353   -0.3032   -2.1760 C.ar      1 <0>        -0.1007
     14 C14        -3.1518   -0.8190   -1.0948 C.ar      1 <0>        -0.1011
     15 S1         -3.4096   -0.7461    0.6593 S.3       1 <0>         0.1042
     16 O1         -4.0361   -0.0428   -4.5343 O.3       1 <0>        -0.4898
     17 C15        -0.1726   -2.8756    0.0032 C.2       1 <0>         0.4559
     18 O2         -0.2509   -4.0850   -0.1167 O.2       1 <0>        -0.4135
     19 C16         1.1508   -2.2307    0.1455 C.ar      1 <0>        -0.0938
     20 C17         1.2395   -0.8607    0.3981 C.ar      1 <0>        -0.0806
     21 C18         2.4769   -0.2654    0.5297 C.ar      1 <0>        -0.0324
     22 C19         3.6287   -1.0230    0.4115 C.ar      1 <0>        -0.6416
     23 C20         3.5478   -2.3815    0.1611 C.ar      1 <0>        -0.0316
     24 C21         2.3165   -2.9904    0.0335 C.ar      1 <0>        -0.0794
     25 S2          5.2053   -0.2545    0.5798 S.o2      1 <0>         2.5109
     26 O3          6.0910   -1.0765   -0.1679 O.2       1 <0>        -0.9068
     27 O4          4.9893    1.1007    0.2109 O.2       1 <0>        -0.9069
     28 C22         5.5920   -0.3665    2.3486 C.3       1 <0>        -0.6749
     29 C23         6.9545    0.2767    2.6144 C.3       1 <0>         0.0031
     30 N1          7.2677    0.1860    4.0468 N.4       1 <0>        -0.3767
     31 C24         6.2980    0.9813    4.8095 C.3       1 <0>        -0.0176
     32 C25         6.5702    0.8253    6.3071 C.3       1 <0>        -0.1453
     33 C26         7.9885    1.3133    6.6162 C.3       1 <0>        -0.1405
     34 C27         8.9860    0.5276    5.7601 C.3       1 <0>        -0.1458
     35 C28         8.6242    0.6946    4.2827 C.3       1 <0>        -0.0120
     36 O5         -0.4883   -3.0020    6.4325 O.3       1 <0>        -0.5000
     37 H1         -1.8269   -0.0362    3.3111 H         1 <0>         0.1360
     38 H2         -1.1555   -0.6112    5.6040 H         1 <0>         0.1377
     39 H3         -0.6388   -4.6951    4.4430 H         1 <0>         0.1377
     40 H4         -1.3036   -4.1340    2.1448 H         1 <0>         0.1343
     41 H5         -0.6502   -2.4123   -2.7343 H         1 <0>         0.1274
     42 H6         -1.8610   -1.4979   -4.6374 H         1 <0>         0.1411
     43 H7         -4.7264    0.2874   -2.0229 H         1 <0>         0.1442
     44 H8         -4.7200   -0.6299   -4.8845 H         1 <0>         0.4005
     45 H9          0.3413   -0.2681    0.4899 H         1 <0>         0.1445
     46 H10         2.5469    0.7945    0.7252 H         1 <0>         0.1516
     47 H11         4.4506   -2.9672    0.0699 H         1 <0>         0.1527
     48 H12         2.2547   -4.0516   -0.1571 H         1 <0>         0.1508
     49 H13         4.8258    0.1554    2.9218 H         1 <0>         0.1598
     50 H14         5.6199   -1.4140    2.6487 H         1 <0>         0.1618
     51 H15         7.7208   -0.2452    2.0412 H         1 <0>         0.1489
     52 H16         6.9266    1.3242    2.3142 H         1 <0>         0.1469
     53 H17         6.3908    2.0311    4.5312 H         1 <0>         0.1338
     54 H18         5.2889    0.6350    4.5860 H         1 <0>         0.1305
     55 H19         5.8503    1.4180    6.8716 H         1 <0>         0.1140
     56 H20         6.4774   -0.2242    6.5866 H         1 <0>         0.0884
     57 H21         8.0670    2.3756    6.3847 H         1 <0>         0.0834
     58 H22         8.2076    1.1519    7.6716 H         1 <0>         0.0957
     59 H23         9.9928    0.9074    5.9335 H         1 <0>         0.1150
     60 H24         8.9433   -0.5281    6.0282 H         1 <0>         0.0887
     61 H25         9.3326    0.1366    3.6703 H         1 <0>         0.1346
     62 H26         8.6675    1.7505    4.0156 H         1 <0>         0.1328
     63 H27        -1.2251   -3.2576    7.0043 H         1 <0>         0.3997
     64 H28         7.2150   -0.7776    4.3412 H         1 <0>         0.4255
@<TRIPOS>BOND
     1    1    6 ar
     2    1    2 ar
     3    1   37 1
     4    2    3 ar
     5    2   38 1
     6    3    4 ar
     7    3   36 1
     8    4    5 ar
     9    4   39 1
    10    5    6 ar
    11    5   40 1
    12    6    7 1
    13    7   15 1
    14    7    8 2
    15    8    9 1
    16    8   17 1
    17    9   14 ar
    18    9   10 ar
    19   10   11 ar
    20   10   41 1
    21   11   12 ar
    22   11   42 1
    23   12   13 ar
    24   12   16 1
    25   13   14 ar
    26   13   43 1
    27   14   15 1
    28   16   44 1
    29   17   18 2
    30   17   19 1
    31   19   24 ar
    32   19   20 ar
    33   20   21 ar
    34   20   45 1
    35   21   22 ar
    36   21   46 1
    37   22   23 ar
    38   22   25 1
    39   23   24 ar
    40   23   47 1
    41   24   48 1
    42   25   26 2
    43   25   27 2
    44   25   28 1
    45   28   29 1
    46   28   49 1
    47   28   50 1
    48   29   30 1
    49   29   51 1
    50   29   52 1
    51   30   35 1
    52   30   31 1
    53   30   64 1
    54   31   32 1
    55   31   53 1
    56   31   54 1
    57   32   33 1
    58   32   55 1
    59   32   56 1
    60   33   34 1
    61   33   57 1
    62   33   58 1
    63   34   35 1
    64   34   59 1
    65   34   60 1
    66   35   61 1
    67   35   62 1
    68   36   63 1
