@<TRIPOS>MOLECULE
CHEMBL85881
   71    75     0     0     0
SMALL
USER_CHARGES

@<TRIPOS>ATOM
      1 C1         -0.0078    1.6611   -0.7611 C.ar      1 <0>        -0.0591
      2 C2          1.3190    2.0048   -0.9341 C.ar      1 <0>        -0.1393
      3 C3          2.2898    1.0150   -0.9851 C.ar      1 <0>         0.1227
      4 C4          1.9252   -0.3179   -0.8620 C.ar      1 <0>        -0.2037
      5 C5          0.5971   -0.6564   -0.6891 C.ar      1 <0>        -0.0465
      6 C6         -0.3685    0.3319   -0.6387 C.ar      1 <0>        -0.1007
      7 C7         -1.8166   -0.0401   -0.4495 C.3       1 <0>         0.1435
      8 H1         -2.3704    0.8247   -0.0841 H         1 <0>         0.0918
      9 C8         -2.4089   -0.5005   -1.7919 C.3       1 <0>        -0.1056
     10 H2         -2.2504    0.2658   -2.5507 H         1 <0>         0.1336
     11 S1         -4.1922   -0.7534   -1.5275 S.3       1 <0>        -0.0917
     12 C9         -4.2361   -1.5941    0.0256 C.ar      1 <0>        -0.1397
     13 C10        -5.4162   -2.2051    0.4286 C.ar      1 <0>        -0.0910
     14 C11        -5.4785   -2.8636    1.6459 C.ar      1 <0>         0.0979
     15 C12        -4.3567   -2.9065    2.4607 C.ar      1 <0>        -0.1102
     16 C13        -3.1833   -2.3017    2.0598 C.ar      1 <0>        -0.1142
     17 C14        -3.1065   -1.6431    0.8348 C.ar      1 <0>         0.1191
     18 O1         -1.9157   -1.0990    0.4905 O.3       1 <0>        -0.3108
     19 O2         -6.6332   -3.4640    2.0400 O.3       1 <0>        -0.4926
     20 C15        -1.7531   -1.8117   -2.2297 C.3       1 <0>        -0.1046
     21 C16        -2.2709   -2.2032   -3.6151 C.3       1 <0>        -0.0904
     22 C17        -1.7197   -3.5789   -3.9955 C.3       1 <0>        -0.1097
     23 C18        -2.2376   -3.9705   -5.3810 C.3       1 <0>        -0.1211
     24 C19        -1.7777   -2.9347   -6.4089 C.3       1 <0>        -0.1194
     25 C20        -2.3289   -1.5591   -6.0284 C.3       1 <0>        -0.1209
     26 C21        -1.8110   -1.1675   -4.6430 C.3       1 <0>        -0.1118
     27 O3          3.5956    1.3505   -1.1558 O.3       1 <0>        -0.3273
     28 C22         4.5404    0.2793   -1.1987 C.3       1 <0>         0.0251
     29 C23         5.9473    0.8477   -1.3953 C.3       1 <0>        -0.0008
     30 N1          6.3052    1.6797   -0.2387 N.4       1 <0>        -0.3841
     31 C24         7.5869    2.3472   -0.4960 C.3       1 <0>        -0.0071
     32 C25         7.9250    3.2777    0.6707 C.3       1 <0>        -0.1467
     33 C26         8.0251    2.4562    1.9593 C.3       1 <0>        -0.1391
     34 C27         6.7082    1.7057    2.1782 C.3       1 <0>        -0.1454
     35 C28         6.4153    0.8334    0.9556 C.3       1 <0>        -0.0132
     36 H3         -0.7633    2.4315   -0.7168 H         1 <0>         0.1396
     37 H4          1.6002    3.0431   -1.0301 H         1 <0>         0.1377
     38 H5          2.6791   -1.0903   -0.9017 H         1 <0>         0.1301
     39 H6          0.3128   -1.6939   -0.5932 H         1 <0>         0.1375
     40 H7         -6.2873   -2.1672   -0.2087 H         1 <0>         0.1390
     41 H8         -4.4020   -3.4150    3.4125 H         1 <0>         0.1409
     42 H9         -2.3157   -2.3396    2.7018 H         1 <0>         0.1382
     43 H10        -6.7114   -4.3868    1.7619 H         1 <0>         0.3941
     44 H11        -0.6716   -1.6814   -2.2695 H         1 <0>         0.0780
     45 H12        -1.9984   -2.5970   -1.5148 H         1 <0>         0.0709
     46 H13        -3.3602   -2.2401   -3.5988 H         1 <0>         0.0853
     47 H14        -0.6305   -3.5420   -4.0119 H         1 <0>         0.0579
     48 H15        -2.0474   -4.3168   -3.2632 H         1 <0>         0.0609
     49 H16        -1.8449   -4.9505   -5.6520 H         1 <0>         0.0622
     50 H17        -3.3269   -4.0073   -5.3646 H         1 <0>         0.0638
     51 H18        -0.6885   -2.8979   -6.4252 H         1 <0>         0.0586
     52 H19        -2.1467   -3.2137   -7.3958 H         1 <0>         0.0624
     53 H20        -2.0013   -0.8212   -6.7607 H         1 <0>         0.0610
     54 H21        -3.4182   -1.5959   -6.0121 H         1 <0>         0.0639
     55 H22        -2.2037   -0.1875   -4.3720 H         1 <0>         0.0576
     56 H23        -0.7218   -1.1306   -4.6593 H         1 <0>         0.0582
     57 H24         4.5010   -0.2777   -0.2626 H         1 <0>         0.0872
     58 H25         4.2982   -0.3858   -2.0276 H         1 <0>         0.1099
     59 H26         6.6603    0.0285   -1.4882 H         1 <0>         0.1493
     60 H27         5.9708    1.4544   -2.3005 H         1 <0>         0.1427
     61 H28         8.3715    1.5979   -0.6017 H         1 <0>         0.1292
     62 H29         7.5151    2.9288   -1.4150 H         1 <0>         0.1311
     63 H30         8.8778    3.7710    0.4786 H         1 <0>         0.1132
     64 H31         7.1411    4.0276    0.7772 H         1 <0>         0.0880
     65 H32         8.8425    1.7403    1.8726 H         1 <0>         0.0821
     66 H33         8.2098    3.1218    2.8025 H         1 <0>         0.0949
     67 H34         6.7913    1.0754    3.0635 H         1 <0>         0.1124
     68 H35         5.8991    2.4230    2.3159 H         1 <0>         0.0879
     69 H36         5.4784    0.2976    1.1082 H         1 <0>         0.1272
     70 H37         7.2248    0.1165    0.8190 H         1 <0>         0.1303
     71 H38         5.5895    2.3755   -0.0918 H         1 <0>         0.4294
@<TRIPOS>BOND
     1    1    6 ar
     2    1    2 ar
     3    1   36 1
     4    2    3 ar
     5    2   37 1
     6    3    4 ar
     7    3   27 1
     8    4    5 ar
     9    4   38 1
    10    5    6 ar
    11    5   39 1
    12    6    7 1
    13    7    8 1
    14    7   18 1
    15    7    9 1
    16    9   10 1
    17    9   11 1
    18    9   20 1
    19   11   12 1
    20   12   17 ar
    21   12   13 ar
    22   13   14 ar
    23   13   40 1
    24   14   15 ar
    25   14   19 1
    26   15   16 ar
    27   15   41 1
    28   16   17 ar
    29   16   42 1
    30   17   18 1
    31   19   43 1
    32   20   21 1
    33   20   44 1
    34   20   45 1
    35   21   26 1
    36   21   22 1
    37   21   46 1
    38   22   23 1
    39   22   47 1
    40   22   48 1
    41   23   24 1
    42   23   49 1
    43   23   50 1
    44   24   25 1
    45   24   51 1
    46   24   52 1
    47   25   26 1
    48   25   53 1
    49   25   54 1
    50   26   55 1
    51   26   56 1
    52   27   28 1
    53   28   29 1
    54   28   57 1
    55   28   58 1
    56   29   30 1
    57   29   59 1
    58   29   60 1
    59   30   35 1
    60   30   31 1
    61   30   71 1
    62   31   32 1
    63   31   61 1
    64   31   62 1
    65   32   33 1
    66   32   63 1
    67   32   64 1
    68   33   34 1
    69   33   65 1
    70   33   66 1
    71   34   35 1
    72   34   67 1
    73   34   68 1
    74   35   69 1
    75   35   70 1
