@<TRIPOS>MOLECULE
CHEMBL1087040
   68    73     0     0     0
SMALL
USER_CHARGES

@<TRIPOS>ATOM
      1 C1          1.0768   -0.8673   -0.1962 C.ar      1 <0>        -0.0745
      2 C2          2.2512   -0.1496   -0.3303 C.ar      1 <0>        -0.1207
      3 C3          2.2214    1.2324   -0.3467 C.ar      1 <0>        -0.0697
      4 C4          1.0176    1.9001   -0.2286 C.ar      1 <0>        -0.1294
      5 C5         -0.1618    1.1824   -0.0940 C.ar      1 <0>         0.1173
      6 C6         -0.1293   -0.2046   -0.0782 C.ar      1 <0>        -0.1969
      7 O1         -1.3472    1.8368    0.0223 O.3       1 <0>        -0.3257
      8 C7         -2.5212    1.0334    0.1575 C.3       1 <0>         0.0253
      9 C8         -3.7485    1.9394    0.2747 C.3       1 <0>        -0.0009
     10 N1         -3.9215    2.6936   -0.9739 N.4       1 <0>        -0.3845
     11 C9         -4.9975    3.6774   -0.8045 C.3       1 <0>        -0.0068
     12 C10        -5.1276    4.5206   -2.0749 C.3       1 <0>        -0.1469
     13 C11        -5.4531    3.6043   -3.2580 C.3       1 <0>        -0.1379
     14 C12        -4.3621    2.5365   -3.3793 C.3       1 <0>        -0.1457
     15 C13        -4.2604    1.7669   -2.0606 C.3       1 <0>        -0.0130
     16 C14         3.5031    2.0114   -0.4929 C.3       1 <0>         0.1865
     17 H1          4.2846    1.3505   -0.8679 H         1 <0>         0.1377
     18 C15         3.9120    2.5506    0.8506 C.2       1 <0>        -0.1048
     19 C16         3.4787    3.7717    1.2410 C.2       1 <0>        -0.0421
     20 C17         3.9064    4.3216    2.5741 C.3       1 <0>        -0.1215
     21 C18         3.1830    3.5989    3.7090 C.3       1 <0>         0.0755
     22 O2          3.1747    2.1925    3.5022 O.3       1 <0>        -0.3238
     23 C19         4.3310    1.6067    3.0984 C.ar      1 <0>         0.1332
     24 C20         4.7449    1.7571    1.7641 C.ar      1 <0>        -0.0863
     25 C21         5.9272    1.1593    1.3307 C.ar      1 <0>        -0.0738
     26 C22         6.6871    0.4242    2.2171 C.ar      1 <0>        -0.1483
     27 C23         6.2780    0.2788    3.5367 C.ar      1 <0>         0.1341
     28 C24         5.1010    0.8700    3.9767 C.ar      1 <0>        -0.1581
     29 O3          7.0340   -0.4462    4.4021 O.3       1 <0>        -0.4947
     30 C25         2.6128    4.5332    0.3310 C.ar      1 <0>        -0.1237
     31 C26         1.8631    5.6218    0.7693 C.ar      1 <0>        -0.0556
     32 C27         1.0641    6.3048   -0.1244 C.ar      1 <0>        -0.1693
     33 C28         1.0060    5.9096   -1.4554 C.ar      1 <0>         0.1432
     34 C29         1.7508    4.8257   -1.9006 C.ar      1 <0>        -0.1738
     35 C30         2.5559    4.1351   -1.0168 C.ar      1 <0>         0.1505
     36 O4          3.3028    3.0776   -1.4214 O.3       1 <0>        -0.2936
     37 O5          0.2147    6.5882   -2.3269 O.3       1 <0>        -0.5000
     38 H2          1.1023   -1.9470   -0.1882 H         1 <0>         0.1346
     39 H3          3.1933   -0.6696   -0.4220 H         1 <0>         0.1327
     40 H4          0.9949    2.9797   -0.2408 H         1 <0>         0.1374
     41 H5         -1.0462   -0.7656    0.0261 H         1 <0>         0.1283
     42 H6         -2.6254    0.3920   -0.7177 H         1 <0>         0.0859
     43 H7         -2.4383    0.4165    1.0523 H         1 <0>         0.1091
     44 H8         -4.6339    1.3302    0.4568 H         1 <0>         0.1491
     45 H9         -3.6093    2.6345    1.1027 H         1 <0>         0.1422
     46 H10        -5.9373    3.1585   -0.6156 H         1 <0>         0.1288
     47 H11        -4.7660    4.3267    0.0398 H         1 <0>         0.1304
     48 H12        -5.9282    5.2492   -1.9478 H         1 <0>         0.1127
     49 H13        -4.1884    5.0402   -2.2646 H         1 <0>         0.0894
     50 H14        -6.4171    3.1233   -3.0920 H         1 <0>         0.0815
     51 H15        -5.4910    4.1925   -4.1749 H         1 <0>         0.0946
     52 H16        -4.6156    1.8470   -4.1845 H         1 <0>         0.1120
     53 H17        -3.4070    3.0150   -3.5960 H         1 <0>         0.0885
     54 H18        -3.4847    1.0057   -2.1436 H         1 <0>         0.1267
     55 H19        -5.2159    1.2887   -1.8449 H         1 <0>         0.1301
     56 H20         4.9819    4.1874    2.6902 H         1 <0>         0.0872
     57 H21         3.6706    5.3849    2.6169 H         1 <0>         0.0946
     58 H22         3.6867    3.8183    4.6504 H         1 <0>         0.0659
     59 H23         2.1553    3.9579    3.7631 H         1 <0>         0.1010
     60 H24         6.2469    1.2708    0.3052 H         1 <0>         0.1359
     61 H25         7.6033   -0.0403    1.8836 H         1 <0>         0.1386
     62 H26         4.7881    0.7535    5.0038 H         1 <0>         0.1399
     63 H27         7.7010    0.0729    4.8718 H         1 <0>         0.3978
     64 H28         1.9066    5.9296    1.8036 H         1 <0>         0.1362
     65 H29         0.4813    7.1497    0.2118 H         1 <0>         0.1357
     66 H30         1.7004    4.5233   -2.9362 H         1 <0>         0.1410
     67 H31         0.6582    7.3251   -2.7690 H         1 <0>         0.4008
     68 H32        -3.0624    3.1731   -1.1978 H         1 <0>         0.4302
@<TRIPOS>BOND
     1    1    6 ar
     2    1    2 ar
     3    1   38 1
     4    2    3 ar
     5    2   39 1
     6    3    4 ar
     7    3   16 1
     8    4    5 ar
     9    4   40 1
    10    5    6 ar
    11    5    7 1
    12    6   41 1
    13    7    8 1
    14    8    9 1
    15    8   42 1
    16    8   43 1
    17    9   10 1
    18    9   44 1
    19    9   45 1
    20   10   15 1
    21   10   11 1
    22   10   68 1
    23   11   12 1
    24   11   46 1
    25   11   47 1
    26   12   13 1
    27   12   48 1
    28   12   49 1
    29   13   14 1
    30   13   50 1
    31   13   51 1
    32   14   15 1
    33   14   52 1
    34   14   53 1
    35   15   54 1
    36   15   55 1
    37   16   17 1
    38   16   36 1
    39   16   18 1
    40   18   24 1
    41   18   19 2
    42   19   20 1
    43   19   30 1
    44   20   21 1
    45   20   56 1
    46   20   57 1
    47   21   22 1
    48   21   58 1
    49   21   59 1
    50   22   23 1
    51   23   28 ar
    52   23   24 ar
    53   24   25 ar
    54   25   26 ar
    55   25   60 1
    56   26   27 ar
    57   26   61 1
    58   27   28 ar
    59   27   29 1
    60   28   62 1
    61   29   63 1
    62   30   35 ar
    63   30   31 ar
    64   31   32 ar
    65   31   64 1
    66   32   33 ar
    67   32   65 1
    68   33   34 ar
    69   33   37 1
    70   34   35 ar
    71   34   66 1
    72   35   36 1
    73   37   67 1
