@<TRIPOS>MOLECULE
CHEMBL178334
   62    66     0     0     0
SMALL
USER_CHARGES

@<TRIPOS>ATOM
      1 C1          1.4239    0.4537    0.5463 C.3       1 <0>        -0.1468
      2 C2          1.2759   -1.0654    0.6529 C.3       1 <0>         0.0762
      3 C3          1.7494   -1.5284    2.0321 C.3       1 <0>        -0.1880
      4 N1         -0.1344   -1.4340    0.4701 N.3       1 <0>        -0.5300
      5 C4         -0.9775   -0.8187    1.5037 C.3       1 <0>         0.0325
      6 C5         -2.4520   -1.0762    1.1754 C.3       1 <0>         0.1201
      7 N2         -2.6449   -2.5232    0.9956 N.pl3     1 <0>        -0.6185
      8 C6         -1.7450   -3.2362    0.0763 C.3       1 <0>         0.1214
      9 C7         -0.2984   -2.8936    0.4479 C.3       1 <0>         0.0376
     10 C8         -3.6513   -3.1994    1.6772 C.ar      1 <0>         0.2597
     11 C9         -4.4213   -2.5286    2.6234 C.ar      1 <0>        -0.2170
     12 C10        -5.4180   -3.1948    3.2991 C.ar      1 <0>        -0.0031
     13 C11        -5.6569   -4.5465    3.0346 C.ar      1 <0>        -0.2300
     14 C12        -4.8819   -5.2173    2.0840 C.ar      1 <0>        -0.0076
     15 C13        -3.8902   -4.5442    1.4078 C.ar      1 <0>        -0.2160
     16 C14        -6.7250   -5.2643    3.7581 C.2       1 <0>         0.4653
     17 O1         -7.4670   -4.6561    4.5088 O.2       1 <0>        -0.4497
     18 C15        -6.8923   -6.7060    3.5735 C.2       1 <0>        -0.1526
     19 C16        -7.8203   -7.2366    2.5717 C.ar      1 <0>        -0.0717
     20 C17        -8.6489   -6.5170    1.6812 C.ar      1 <0>        -0.0569
     21 C18        -9.4667   -7.1729    0.7992 C.ar      1 <0>        -0.1383
     22 C19        -9.5074   -8.5635    0.7514 C.ar      1 <0>         0.1340
     23 C20        -8.7060   -9.2964    1.6118 C.ar      1 <0>        -0.1024
     24 C21        -7.8813   -8.6410    2.5020 C.ar      1 <0>        -0.1018
     25 S1         -6.7338   -9.1945    3.7372 S.3       1 <0>         0.0833
     26 C22        -6.1722   -7.6141    4.3385 C.2       1 <0>        -0.0552
     27 C23        -5.1822   -7.3372    5.3953 C.ar      1 <0>        -0.0370
     28 C24        -5.4613   -6.3923    6.3872 C.ar      1 <0>        -0.0714
     29 C25        -4.5333   -6.1368    7.3725 C.ar      1 <0>        -0.1390
     30 C26        -3.3212   -6.8162    7.3814 C.ar      1 <0>         0.1233
     31 C27        -3.0393   -7.7558    6.3973 C.ar      1 <0>        -0.1467
     32 C28        -3.9640   -8.0227    5.4119 C.ar      1 <0>        -0.0736
     33 O2         -2.4092   -6.5607    8.3545 O.3       1 <0>        -0.4976
     34 O3        -10.3257   -9.1963   -0.1305 O.3       1 <0>        -0.4909
     35 H1          2.4703    0.7272    0.6819 H         1 <0>         0.0614
     36 H2          1.0866    0.7836   -0.4363 H         1 <0>         0.0646
     37 H3          0.8203    0.9326    1.3173 H         1 <0>         0.0561
     38 H4          1.8794   -1.5443   -0.1182 H         1 <0>         0.0847
     39 H5          2.7957   -1.2549    2.1677 H         1 <0>         0.0636
     40 H6          1.1458   -1.0496    2.8031 H         1 <0>         0.0576
     41 H7          1.6439   -2.6106    2.1080 H         1 <0>         0.0553
     42 H8         -0.7395   -1.2543    2.4741 H         1 <0>         0.0429
     43 H9         -0.7933    0.2553    1.5316 H         1 <0>         0.0914
     44 H10        -3.0769   -0.7226    1.9955 H         1 <0>         0.0891
     45 H11        -2.7191   -0.5542    0.2565 H         1 <0>         0.0745
     46 H12        -1.9024   -4.3107    0.1698 H         1 <0>         0.0885
     47 H13        -1.9441   -2.9218   -0.9482 H         1 <0>         0.0742
     48 H14         0.3785   -3.3245   -0.2900 H         1 <0>         0.0869
     49 H15        -0.0698   -3.3003    1.4330 H         1 <0>         0.0424
     50 H16        -4.2360   -1.4844    2.8275 H         1 <0>         0.1294
     51 H17        -6.0148   -2.6739    4.0332 H         1 <0>         0.1322
     52 H18        -5.0638   -6.2617    1.8778 H         1 <0>         0.1247
     53 H19        -3.2938   -5.0608    0.6703 H         1 <0>         0.1283
     54 H20        -8.6376   -5.4371    1.6965 H         1 <0>         0.1298
     55 H21       -10.0912   -6.6008    0.1291 H         1 <0>         0.1382
     56 H22        -8.7275  -10.3759    1.5861 H         1 <0>         0.1407
     57 H23        -6.4028   -5.8633    6.3806 H         1 <0>         0.1350
     58 H24        -4.7480   -5.4070    8.1392 H         1 <0>         0.1362
     59 H25        -2.0956   -8.2810    6.4078 H         1 <0>         0.1359
     60 H26        -3.7462   -8.7570    4.6504 H         1 <0>         0.1334
     61 H27        -2.4552   -7.1677    9.1058 H         1 <0>         0.3949
     62 H28        -9.9156   -9.3777   -0.9873 H         1 <0>         0.3962
@<TRIPOS>BOND
     1    1    2 1
     2    1   35 1
     3    1   36 1
     4    1   37 1
     5    2    3 1
     6    2    4 1
     7    2   38 1
     8    3   39 1
     9    3   40 1
    10    3   41 1
    11    4    9 1
    12    4    5 1
    13    5    6 1
    14    5   42 1
    15    5   43 1
    16    6    7 1
    17    6   44 1
    18    6   45 1
    19    7    8 1
    20    7   10 1
    21    8    9 1
    22    8   46 1
    23    8   47 1
    24    9   48 1
    25    9   49 1
    26   10   15 ar
    27   10   11 ar
    28   11   12 ar
    29   11   50 1
    30   12   13 ar
    31   12   51 1
    32   13   14 ar
    33   13   16 1
    34   14   15 ar
    35   14   52 1
    36   15   53 1
    37   16   17 2
    38   16   18 1
    39   18   26 2
    40   18   19 1
    41   19   24 ar
    42   19   20 ar
    43   20   21 ar
    44   20   54 1
    45   21   22 ar
    46   21   55 1
    47   22   23 ar
    48   22   34 1
    49   23   24 ar
    50   23   56 1
    51   24   25 1
    52   25   26 1
    53   26   27 1
    54   27   32 ar
    55   27   28 ar
    56   28   29 ar
    57   28   57 1
    58   29   30 ar
    59   29   58 1
    60   30   31 ar
    61   30   33 1
    62   31   32 ar
    63   31   59 1
    64   32   60 1
    65   33   61 1
    66   34   62 1
