@<TRIPOS>MOLECULE
CHEMBL250519
   71    77     0     0     0
SMALL
USER_CHARGES

@<TRIPOS>ATOM
      1 C1         -0.0187    1.5258    0.0104 C.3       1 <0>        -0.1378
      2 C2          0.0021   -0.0041    0.0020 C.3       1 <0>        -0.0446
      3 C3         -1.4064   -0.5323    0.1772 C.3       1 <0>        -0.1018
      4 C4         -1.9756    0.0797    1.4714 C.3       1 <0>        -0.1133
      5 C5         -1.0851   -0.2532    2.6598 C.3       1 <0>        -0.0424
      6 H1         -1.0806   -1.3360    2.7843 H         1 <0>         0.0764
      7 C6         -1.6005    0.3571    3.9311 C.ar      1 <0>        -0.0774
      8 C7         -2.9742    0.4710    4.0964 C.ar      1 <0>        -0.1029
      9 C8         -3.5002    1.0150    5.2487 C.ar      1 <0>        -0.1471
     10 C9         -2.6480    1.4512    6.2530 C.ar      1 <0>         0.1028
     11 C10        -1.2787    1.3413    6.0863 C.ar      1 <0>        -0.1479
     12 C11        -0.7495    0.7994    4.9225 C.ar      1 <0>        -0.0574
     13 C12         0.7502    0.7384    4.8002 C.3       1 <0>        -0.0822
     14 C13         1.1786   -0.1827    3.6588 C.3       1 <0>        -0.1134
     15 C14         0.3612    0.2021    2.4252 C.3       1 <0>        -0.0741
     16 H2          0.3879    1.2814    2.2748 H         1 <0>         0.0885
     17 C15         0.8604   -0.5199    1.1907 C.3       1 <0>        -0.0820
     18 H3          0.7388   -1.5961    1.3133 H         1 <0>         0.0784
     19 C16         2.2767   -0.1707    0.7204 C.3       1 <0>        -0.1114
     20 C17         2.2489   -0.5546   -0.7844 C.3       1 <0>        -0.1437
     21 C18         0.7638   -0.4984   -1.2221 C.3       1 <0>         0.2555
     22 C19         0.2945   -1.8392   -1.6079 C.1       1 <0>        -0.1554
     23 C20        -0.0798   -2.9086   -1.9155 C.1       1 <0>        -0.1238
     24 C21        -0.5363   -4.2130   -2.2908 C.ar      1 <0>        -0.0025
     25 C22        -1.5467   -4.8373   -1.5636 C.ar      1 <0>        -0.0336
     26 C23        -1.9931   -6.0976   -1.9202 C.ar      1 <0>        -0.1442
     27 C24        -1.4434   -6.7541   -3.0017 C.ar      1 <0>        -0.0193
     28 C25        -0.4310   -6.1452   -3.7425 C.ar      1 <0>        -0.2211
     29 C26         0.0273   -4.8662   -3.3958 C.ar      1 <0>         0.1670
     30 O1          1.0034   -4.2833   -4.1201 O.3       1 <0>        -0.2137
     31 C27         1.5638   -4.8816   -5.1823 C.2       1 <0>         0.2116
     32 C28         1.1893   -6.1187   -5.6066 C.2       1 <0>        -0.3168
     33 C29         0.1800   -6.8195   -4.9057 C.2       1 <0>         0.4238
     34 O2         -0.1811   -7.9306   -5.2566 O.2       1 <0>        -0.4652
     35 C30         2.6273   -4.1699   -5.9192 C.ar      1 <0>        -0.0755
     36 C31         3.2268   -4.7629   -7.0325 C.ar      1 <0>        -0.0789
     37 C32         4.2196   -4.0924   -7.7161 C.ar      1 <0>        -0.1204
     38 C33         4.6220   -2.8352   -7.3011 C.ar      1 <0>        -0.0915
     39 C34         4.0327   -2.2419   -6.1986 C.ar      1 <0>        -0.1224
     40 C35         3.0344   -2.8983   -5.5093 C.ar      1 <0>        -0.0777
     41 O3          0.6019    0.4156   -2.3086 O.3       1 <0>        -0.5374
     42 O4         -3.1559    1.9844    7.3952 O.3       1 <0>        -0.5003
     43 H4          1.0033    1.9032   -0.0250 H         1 <0>         0.0584
     44 H5         -0.5695    1.8864   -0.8582 H         1 <0>         0.0646
     45 H6         -0.5045    1.8775    0.9205 H         1 <0>         0.0652
     46 H7         -2.0207   -0.2365   -0.6732 H         1 <0>         0.0687
     47 H8         -1.3862   -1.6190    0.2597 H         1 <0>         0.0646
     48 H9         -2.0364    1.1623    1.3603 H         1 <0>         0.0722
     49 H10        -2.9745   -0.3191    1.6483 H         1 <0>         0.0666
     50 H11        -3.6371    0.1306    3.3147 H         1 <0>         0.1274
     51 H12        -4.5700    1.1016    5.3689 H         1 <0>         0.1274
     52 H13        -0.6155    1.6804    6.8684 H         1 <0>         0.1260
     53 H14         1.1338    1.7413    4.6125 H         1 <0>         0.0780
     54 H15         1.1695    0.3666    5.7351 H         1 <0>         0.0749
     55 H16         2.2408   -0.0469    3.4558 H         1 <0>         0.0726
     56 H17         0.9854   -1.2202    3.9313 H         1 <0>         0.0662
     57 H18         2.4720    0.8946    0.8429 H         1 <0>         0.0767
     58 H19         3.0180   -0.7638    1.2560 H         1 <0>         0.0715
     59 H20         2.8367    0.1577   -1.3632 H         1 <0>         0.0832
     60 H21         2.6412   -1.5624   -0.9207 H         1 <0>         0.0722
     61 H22        -1.9851   -4.3340   -0.7145 H         1 <0>         0.1459
     62 H23        -2.7771   -6.5708   -1.3476 H         1 <0>         0.1449
     63 H24        -1.7962   -7.7379   -3.2740 H         1 <0>         0.1482
     64 H25         1.6652   -6.5661   -6.4667 H         1 <0>         0.1641
     65 H26         2.9139   -5.7442   -7.3573 H         1 <0>         0.1364
     66 H27         4.6843   -4.5499   -8.5770 H         1 <0>         0.1350
     67 H28         5.3998   -2.3147   -7.8400 H         1 <0>         0.1311
     68 H29         4.3518   -1.2606   -5.8799 H         1 <0>         0.1321
     69 H30         2.5717   -2.4320   -4.6521 H         1 <0>         0.1320
     70 H31         1.0650    0.1529   -3.1159 H         1 <0>         0.3792
     71 H32        -3.3231    1.3350    8.0920 H         1 <0>         0.3902
@<TRIPOS>BOND
     1    1    2 1
     2    1   43 1
     3    1   44 1
     4    1   45 1
     5    2   17 1
     6    2   21 1
     7    2    3 1
     8    3    4 1
     9    3   46 1
    10    3   47 1
    11    4    5 1
    12    4   48 1
    13    4   49 1
    14    5    6 1
    15    5   15 1
    16    5    7 1
    17    7   12 ar
    18    7    8 ar
    19    8    9 ar
    20    8   50 1
    21    9   10 ar
    22    9   51 1
    23   10   11 ar
    24   10   42 1
    25   11   12 ar
    26   11   52 1
    27   12   13 1
    28   13   14 1
    29   13   53 1
    30   13   54 1
    31   14   15 1
    32   14   55 1
    33   14   56 1
    34   15   16 1
    35   15   17 1
    36   17   18 1
    37   17   19 1
    38   19   20 1
    39   19   57 1
    40   19   58 1
    41   20   21 1
    42   20   59 1
    43   20   60 1
    44   21   22 1
    45   21   41 1
    46   22   23 3
    47   23   24 1
    48   24   29 ar
    49   24   25 ar
    50   25   26 ar
    51   25   61 1
    52   26   27 ar
    53   26   62 1
    54   27   28 ar
    55   27   63 1
    56   28   33 1
    57   28   29 ar
    58   29   30 1
    59   30   31 1
    60   31   32 2
    61   31   35 1
    62   32   33 1
    63   32   64 1
    64   33   34 2
    65   35   40 ar
    66   35   36 ar
    67   36   37 ar
    68   36   65 1
    69   37   38 ar
    70   37   66 1
    71   38   39 ar
    72   38   67 1
    73   39   40 ar
    74   39   68 1
    75   40   69 1
    76   41   70 1
    77   42   71 1
