@<TRIPOS>MOLECULE
CHEMBL191711
   68    73     0     0     0
SMALL
USER_CHARGES

@<TRIPOS>ATOM
      1 C1          7.0856    2.9096    2.2778 C.ar      1 <0>        -0.0533
      2 C2          5.9422    3.1487    1.5400 C.ar      1 <0>        -0.2073
      3 C3          5.2259    4.3241    1.7288 C.ar      1 <0>         0.2404
      4 C4          5.6605    5.2576    2.6601 C.ar      1 <0>        -0.2252
      5 C5          6.8075    5.0136    3.3983 C.ar      1 <0>         0.1546
      6 C6          7.5194    3.8376    3.2050 C.ar      1 <0>        -0.2013
      7 O1          7.2358    5.9254    4.3104 O.3       1 <0>        -0.5017
      8 N1          4.0706    4.5665    0.9824 N.pl3     1 <0>        -0.6180
      9 C7          3.2308    5.7494    1.2339 C.3       1 <0>         0.1130
     10 C8          1.8669    5.2620    1.7204 C.3       1 <0>        -0.1028
     11 C9          1.3455    4.1589    0.8374 C.ar      1 <0>        -0.0469
     12 C10        -0.0194    3.9032    0.8662 C.ar      1 <0>        -0.1476
     13 C11        -0.5630    2.8967    0.0871 C.ar      1 <0>         0.1149
     14 C12         0.2629    2.1365   -0.7286 C.ar      1 <0>        -0.1454
     15 C13         1.6168    2.3946   -0.7588 C.ar      1 <0>        -0.0885
     16 C14         2.1604    3.4084    0.0193 C.ar      1 <0>        -0.1005
     17 C15         3.6486    3.6561   -0.0873 C.3       1 <0>         0.2403
     18 C16         3.9642    4.2739   -1.4251 C.ar      1 <0>        -0.1254
     19 C17         4.9012    3.6841   -2.2536 C.ar      1 <0>        -0.0559
     20 C18         5.1928    4.2477   -3.4802 C.ar      1 <0>        -0.1837
     21 C19         4.5436    5.4084   -3.8815 C.ar      1 <0>         0.2019
     22 C20         3.6029    5.9983   -3.0468 C.ar      1 <0>        -0.1850
     23 C21         3.3120    5.4263   -1.8239 C.ar      1 <0>        -0.0530
     24 N2          4.8364    5.9813   -5.1212 N.pl3     1 <0>        -0.6440
     25 C22         4.2601    7.2775   -5.5105 C.3       1 <0>         0.1009
     26 C23         5.3933    8.1860   -5.9988 C.3       1 <0>        -0.0226
     27 N3          6.1368    7.5077   -7.0680 N.4       1 <0>        -0.3796
     28 C24         6.7942    6.3072   -6.5361 C.3       1 <0>        -0.0224
     29 C25         5.7348    5.3084   -6.0721 C.3       1 <0>         0.0995
     30 C26         7.1522    8.4200   -7.6107 C.3       1 <0>         0.0265
     31 C27         7.8434    7.7609   -8.8060 C.3       1 <0>        -0.2129
     32 C28         9.3392    7.4645   -8.6818 C.3       1 <0>        -0.1682
     33 C29         8.8570    8.5999   -9.5868 C.3       1 <0>        -0.1482
     34 O2         -1.8998    2.6544    0.1205 O.3       1 <0>        -0.4975
     35 H1          7.6388    1.9935    2.1327 H         1 <0>         0.1269
     36 H2          5.6053    2.4217    0.8159 H         1 <0>         0.1213
     37 H3          5.1058    6.1723    2.8087 H         1 <0>         0.1282
     38 H4          8.4134    3.6476    3.7804 H         1 <0>         0.1259
     39 H5          6.8745    5.7939    5.1976 H         1 <0>         0.3948
     40 H6          3.6932    6.3742    1.9980 H         1 <0>         0.0922
     41 H7          3.1116    6.3196    0.3127 H         1 <0>         0.0731
     42 H8          1.9621    4.8899    2.7405 H         1 <0>         0.0862
     43 H9          1.1633    6.0944    1.7075 H         1 <0>         0.0876
     44 H10        -0.6617    4.4943    1.5021 H         1 <0>         0.1300
     45 H11        -0.1528    1.3469   -1.3370 H         1 <0>         0.1313
     46 H12         2.2604    1.8027   -1.3926 H         1 <0>         0.1260
     47 H13         4.1822    2.7105    0.0096 H         1 <0>         0.1050
     48 H14         5.4058    2.7819   -1.9409 H         1 <0>         0.1278
     49 H15         5.9249    3.7867   -4.1267 H         1 <0>         0.1240
     50 H16         3.0967    6.9009   -3.3555 H         1 <0>         0.1225
     51 H17         2.5775    5.8820   -1.1763 H         1 <0>         0.1282
     52 H18         3.5368    7.1307   -6.3127 H         1 <0>         0.0877
     53 H19         3.7699    7.7336   -4.6504 H         1 <0>         0.1261
     54 H20         4.9739    9.1164   -6.3816 H         1 <0>         0.1410
     55 H21         6.0666    8.4045   -5.1701 H         1 <0>         0.1324
     56 H22         7.4071    5.8533   -7.3148 H         1 <0>         0.1420
     57 H23         7.4252    6.5826   -5.6911 H         1 <0>         0.1314
     58 H24         6.2192    4.4632   -5.5831 H         1 <0>         0.1268
     59 H25         5.1630    4.9594   -6.9320 H         1 <0>         0.0868
     60 H26         6.6744    9.3455   -7.9322 H         1 <0>         0.1337
     61 H27         7.8909    8.6411   -6.8403 H         1 <0>         0.1286
     62 H28         7.2349    7.0537   -9.3696 H         1 <0>         0.1248
     63 H29         9.8309    7.7390   -7.7485 H         1 <0>         0.1059
     64 H30         9.7152    6.5619   -9.1637 H         1 <0>         0.1106
     65 H31         8.9156    8.4444  -10.6641 H         1 <0>         0.1127
     66 H32         9.0313    9.6215   -9.2489 H         1 <0>         0.1077
     67 H33        -2.4075    3.1598   -0.5291 H         1 <0>         0.3929
     68 H34         5.4990    7.2424   -7.8035 H         1 <0>         0.4226
@<TRIPOS>BOND
     1    1    6 ar
     2    1    2 ar
     3    1   35 1
     4    2    3 ar
     5    2   36 1
     6    3    4 ar
     7    3    8 1
     8    4    5 ar
     9    4   37 1
    10    5    6 ar
    11    5    7 1
    12    6   38 1
    13    7   39 1
    14    8   17 1
    15    8    9 1
    16    9   10 1
    17    9   40 1
    18    9   41 1
    19   10   11 1
    20   10   42 1
    21   10   43 1
    22   11   16 ar
    23   11   12 ar
    24   12   13 ar
    25   12   44 1
    26   13   14 ar
    27   13   34 1
    28   14   15 ar
    29   14   45 1
    30   15   16 ar
    31   15   46 1
    32   16   17 1
    33   17   18 1
    34   17   47 1
    35   18   23 ar
    36   18   19 ar
    37   19   20 ar
    38   19   48 1
    39   20   21 ar
    40   20   49 1
    41   21   22 ar
    42   21   24 1
    43   22   23 ar
    44   22   50 1
    45   23   51 1
    46   24   29 1
    47   24   25 1
    48   25   26 1
    49   25   52 1
    50   25   53 1
    51   26   27 1
    52   26   54 1
    53   26   55 1
    54   27   28 1
    55   27   30 1
    56   27   68 1
    57   28   29 1
    58   28   56 1
    59   28   57 1
    60   29   58 1
    61   29   59 1
    62   30   31 1
    63   30   60 1
    64   30   61 1
    65   31   33 1
    66   31   32 1
    67   31   62 1
    68   32   33 1
    69   32   63 1
    70   32   64 1
    71   33   65 1
    72   33   66 1
    73   34   67 1
