@<TRIPOS>MOLECULE
CHEMBL61026
   56    59     0     0     0
SMALL
USER_CHARGES

@<TRIPOS>ATOM
      1 C1         -0.0187    1.5258    0.0104 C.3       1 <0>        -0.1820
      2 C2          0.0021   -0.0041    0.0020 C.3       1 <0>         0.0872
      3 N1          0.6878   -0.4765   -1.2033 N.pl3     1 <0>        -0.5840
      4 C3          2.1353   -0.7012   -1.1821 C.3       1 <0>         0.1538
      5 C4          2.4170   -2.1231   -0.7698 C.ar      1 <0>        -0.0851
      6 C5          2.5796   -2.4556    0.5664 C.ar      1 <0>        -0.1545
      7 C6          2.8369   -3.7702    0.9067 C.ar      1 <0>         0.1099
      8 N2          2.9283   -4.7019   -0.0220 N.ar      1 <0>        -0.4700
      9 C7          2.7793   -4.4221   -1.3020 C.ar      1 <0>         0.1096
     10 C8          2.5139   -3.1308   -1.7171 C.ar      1 <0>        -0.1630
     11 C9         -0.0351   -0.7117   -2.3673 C.ar      1 <0>         0.4611
     12 C10         0.6233   -1.1652   -3.5040 C.ar      1 <0>        -0.2239
     13 C11        -0.1108   -1.3989   -4.6676 C.ar      1 <0>         0.1366
     14 C12        -1.4882   -1.1654   -4.6417 C.ar      1 <0>        -0.1751
     15 C13        -2.0748   -0.7118   -3.4662 C.ar      1 <0>         0.2493
     16 N3         -1.3423   -0.5060   -2.3772 N.ar      1 <0>        -0.5185
     17 C14        -3.5356   -0.4602   -3.4254 C.ar      1 <0>        -0.1134
     18 C15        -4.1327    0.0004   -2.2525 C.ar      1 <0>        -0.0851
     19 C16        -5.4909    0.2339   -2.2179 C.ar      1 <0>        -0.1328
     20 C17        -6.2644    0.0103   -3.3494 C.ar      1 <0>         0.1558
     21 C18        -5.6728   -0.4484   -4.5187 C.ar      1 <0>        -0.1006
     22 C19        -4.3138   -0.6782   -4.5612 C.ar      1 <0>        -0.0530
     23 C20        -6.5158   -0.6897   -5.7443 C.3       1 <0>        -0.1234
     24 O1         -7.6027    0.2404   -3.3120 O.3       1 <0>        -0.4884
     25 C21         0.5551   -1.8829   -5.9023 C.ar      1 <0>        -0.1019
     26 C22         1.9288   -2.1160   -5.9103 C.ar      1 <0>        -0.0797
     27 C23         2.5429   -2.5667   -7.0613 C.ar      1 <0>        -0.1185
     28 C24         1.7973   -2.7869   -8.2053 C.ar      1 <0>        -0.0764
     29 C25         0.4333   -2.5571   -8.2029 C.ar      1 <0>        -0.1181
     30 C26        -0.1920   -2.1115   -7.0560 C.ar      1 <0>        -0.0774
     31 H1          1.0039    1.9031    0.0027 H         1 <0>         0.0776
     32 H2         -0.5459    1.8868   -0.8726 H         1 <0>         0.0577
     33 H3         -0.5289    1.8773    0.9072 H         1 <0>         0.0897
     34 H4          0.5293   -0.3651    0.8851 H         1 <0>         0.1141
     35 H5         -1.0205   -0.3814    0.0098 H         1 <0>         0.0766
     36 H6          2.5453   -0.5232   -2.1762 H         1 <0>         0.1073
     37 H7          2.5986   -0.0180   -0.4703 H         1 <0>         0.1197
     38 H8          2.5066   -1.6969    1.3315 H         1 <0>         0.1388
     39 H9          2.9649   -4.0374    1.9453 H         1 <0>         0.1637
     40 H10         2.8614   -5.2118   -2.0341 H         1 <0>         0.1622
     41 H11         2.3879   -2.9088   -2.7665 H         1 <0>         0.1328
     42 H12         1.6898   -1.3344   -3.4872 H         1 <0>         0.1763
     43 H13        -2.0888   -1.3348   -5.5232 H         1 <0>         0.1782
     44 H14        -3.5318    0.1738   -1.3721 H         1 <0>         0.1225
     45 H15        -5.9539    0.5907   -1.3097 H         1 <0>         0.1476
     46 H16        -3.8534   -1.0308   -5.4724 H         1 <0>         0.1439
     47 H17        -6.5603    0.2220   -6.3400 H         1 <0>         0.0811
     48 H18        -6.0736   -1.4901   -6.3376 H         1 <0>         0.0766
     49 H19        -7.5232   -0.9757   -5.4419 H         1 <0>         0.0839
     50 H20        -7.8540    1.1409   -3.5590 H         1 <0>         0.4057
     51 H21         2.5120   -1.9441   -5.0178 H         1 <0>         0.1279
     52 H22         3.6077   -2.7473   -7.0688 H         1 <0>         0.1375
     53 H23         2.2819   -3.1392   -9.1039 H         1 <0>         0.1368
     54 H24        -0.1442   -2.7307   -9.0989 H         1 <0>         0.1380
     55 H25        -1.2577   -1.9363   -7.0540 H         1 <0>         0.1320
     56 H26        -1.7768   -0.1927   -1.5685 H         1 <0>         0.4329
@<TRIPOS>BOND
     1    1    2 1
     2    1   31 1
     3    1   32 1
     4    1   33 1
     5    2    3 1
     6    2   34 1
     7    2   35 1
     8    3    4 1
     9    3   11 1
    10    4    5 1
    11    4   36 1
    12    4   37 1
    13    5   10 ar
    14    5    6 ar
    15    6    7 ar
    16    6   38 1
    17    7    8 ar
    18    7   39 1
    19    8    9 ar
    20    9   10 ar
    21    9   40 1
    22   10   41 1
    23   11   16 ar
    24   11   12 ar
    25   12   13 ar
    26   12   42 1
    27   13   14 ar
    28   13   25 1
    29   14   15 ar
    30   14   43 1
    31   15   16 ar
    32   15   17 1
    33   16   56 1
    34   17   22 ar
    35   17   18 ar
    36   18   19 ar
    37   18   44 1
    38   19   20 ar
    39   19   45 1
    40   20   21 ar
    41   20   24 1
    42   21   22 ar
    43   21   23 1
    44   22   46 1
    45   23   47 1
    46   23   48 1
    47   23   49 1
    48   24   50 1
    49   25   30 ar
    50   25   26 ar
    51   26   27 ar
    52   26   51 1
    53   27   28 ar
    54   27   52 1
    55   28   29 ar
    56   28   53 1
    57   29   30 ar
    58   29   54 1
    59   30   55 1
