@<TRIPOS>MOLECULE
CHEMBL68055
   66    70     0     0     0
SMALL
USER_CHARGES

@<TRIPOS>ATOM
      1 C1         -0.3860    1.5432   -0.0490 C.3       1 <0>        -0.1172
      2 C2         -0.4040    0.0365   -0.0751 C.2       1 <0>        -0.0301
      3 C3         -1.5648   -0.6437    0.0000 C.2       1 <0>        -0.1355
      4 C4         -1.5553   -2.1499    0.0089 C.3       1 <0>         0.1884
      5 H1         -2.4820   -2.5171   -0.4321 H         1 <0>         0.1317
      6 O1         -0.4484   -2.6535   -0.7374 O.3       1 <0>        -0.2932
      7 C5          0.7690   -2.0981   -0.5092 C.ar      1 <0>         0.1489
      8 C6          0.8469   -0.7341   -0.1898 C.ar      1 <0>        -0.1394
      9 C7          2.0877   -0.1367    0.0196 C.ar      1 <0>        -0.0530
     10 C8          3.2357   -0.8957   -0.0819 C.ar      1 <0>        -0.1714
     11 C9          3.1558   -2.2482   -0.3901 C.ar      1 <0>         0.1512
     12 C10         1.9245   -2.8492   -0.5958 C.ar      1 <0>        -0.1752
     13 O2          4.2917   -2.9878   -0.4808 O.3       1 <0>        -0.4918
     14 C11        -1.4559   -2.6369    1.4315 C.ar      1 <0>        -0.1292
     15 C12        -0.2308   -2.6508    2.0723 C.ar      1 <0>        -0.0677
     16 C13        -0.1370   -3.0973    3.3762 C.ar      1 <0>        -0.1369
     17 C14        -1.2735   -3.5315    4.0430 C.ar      1 <0>         0.1180
     18 C15        -2.5017   -3.5161    3.3980 C.ar      1 <0>        -0.2002
     19 C16        -2.5910   -3.0638    2.0957 C.ar      1 <0>        -0.0623
     20 O3         -1.1837   -3.9715    5.3256 O.3       1 <0>        -0.3278
     21 C17        -2.3946   -4.4034    5.9495 C.3       1 <0>         0.0251
     22 C18        -2.0971   -4.8596    7.3793 C.3       1 <0>        -0.0009
     23 N1         -1.6083   -3.7191    8.1655 N.4       1 <0>        -0.3841
     24 C19        -1.1766   -4.1874    9.4879 C.3       1 <0>        -0.0071
     25 C20        -0.5915   -3.0173   10.2816 C.3       1 <0>        -0.1467
     26 C21        -1.6611   -1.9337   10.4463 C.3       1 <0>        -0.1390
     27 C22        -2.1573   -1.5057    9.0622 C.3       1 <0>        -0.1453
     28 C23        -2.6844   -2.7318    8.3136 C.3       1 <0>        -0.0132
     29 C24        -2.8429    0.0856    0.0741 C.ar      1 <0>        -0.0504
     30 C25        -3.6336   -0.0003    1.2235 C.ar      1 <0>        -0.0913
     31 C26        -4.8280    0.6841    1.2882 C.ar      1 <0>        -0.1459
     32 C27        -5.2467    1.4579    0.2135 C.ar      1 <0>         0.1130
     33 C28        -4.4648    1.5460   -0.9309 C.ar      1 <0>        -0.1403
     34 C29        -3.2658    0.8703   -1.0027 C.ar      1 <0>        -0.0835
     35 O4         -6.4253    2.1305    0.2818 O.3       1 <0>        -0.4990
     36 H2          0.6426    1.8956   -0.1252 H         1 <0>         0.0712
     37 H3         -0.9652    1.9281   -0.8884 H         1 <0>         0.0790
     38 H4         -0.8225    1.8956    0.8855 H         1 <0>         0.0750
     39 H5          2.1509    0.9144    0.2597 H         1 <0>         0.1389
     40 H6          4.2001   -0.4367    0.0784 H         1 <0>         0.1376
     41 H7          1.8700   -3.9009   -0.8354 H         1 <0>         0.1426
     42 H8          4.5639   -3.3946    0.3532 H         1 <0>         0.3962
     43 H9          0.6536   -2.3127    1.5528 H         1 <0>         0.1384
     44 H10         0.8203   -3.1086    3.8760 H         1 <0>         0.1335
     45 H11        -3.3878   -3.8536    3.9149 H         1 <0>         0.1305
     46 H12        -3.5476   -3.0475    1.5946 H         1 <0>         0.1345
     47 H13        -3.1061   -3.5780    5.9722 H         1 <0>         0.0865
     48 H14        -2.8187   -5.2332    5.3842 H         1 <0>         0.1100
     49 H15        -3.0080   -5.2501    7.8331 H         1 <0>         0.1493
     50 H16        -1.3368   -5.6405    7.3607 H         1 <0>         0.1427
     51 H17        -2.0318   -4.5982   10.0245 H         1 <0>         0.1293
     52 H18        -0.4177   -4.9607    9.3691 H         1 <0>         0.1311
     53 H19        -0.2732   -3.3667   11.2638 H         1 <0>         0.1132
     54 H20         0.2641   -2.6058    9.7461 H         1 <0>         0.0878
     55 H21        -2.4949   -2.3296   11.0260 H         1 <0>         0.0823
     56 H22        -1.2328   -1.0741   10.9618 H         1 <0>         0.0948
     57 H23        -2.9582   -0.7746    9.1727 H         1 <0>         0.1122
     58 H24        -1.3343   -1.0628    8.5013 H         1 <0>         0.0876
     59 H25        -3.0387   -2.4306    7.3278 H         1 <0>         0.1270
     60 H26        -3.5075   -3.1737    8.8752 H         1 <0>         0.1304
     61 H27        -3.3092   -0.6023    2.0595 H         1 <0>         0.1237
     62 H28        -5.4396    0.6184    2.1759 H         1 <0>         0.1285
     63 H29        -4.7948    2.1484   -1.7643 H         1 <0>         0.1338
     64 H30        -2.6561    0.9432   -1.8911 H         1 <0>         0.1302
     65 H31        -6.3477    3.0245    0.6420 H         1 <0>         0.3942
     66 H32        -0.8266   -3.2941    7.6897 H         1 <0>         0.4292
@<TRIPOS>BOND
     1    1    2 1
     2    1   36 1
     3    1   37 1
     4    1   38 1
     5    2    8 1
     6    2    3 2
     7    3    4 1
     8    3   29 1
     9    4    5 1
    10    4    6 1
    11    4   14 1
    12    6    7 1
    13    7   12 ar
    14    7    8 ar
    15    8    9 ar
    16    9   10 ar
    17    9   39 1
    18   10   11 ar
    19   10   40 1
    20   11   12 ar
    21   11   13 1
    22   12   41 1
    23   13   42 1
    24   14   19 ar
    25   14   15 ar
    26   15   16 ar
    27   15   43 1
    28   16   17 ar
    29   16   44 1
    30   17   18 ar
    31   17   20 1
    32   18   19 ar
    33   18   45 1
    34   19   46 1
    35   20   21 1
    36   21   22 1
    37   21   47 1
    38   21   48 1
    39   22   23 1
    40   22   49 1
    41   22   50 1
    42   23   28 1
    43   23   24 1
    44   23   66 1
    45   24   25 1
    46   24   51 1
    47   24   52 1
    48   25   26 1
    49   25   53 1
    50   25   54 1
    51   26   27 1
    52   26   55 1
    53   26   56 1
    54   27   28 1
    55   27   57 1
    56   27   58 1
    57   28   59 1
    58   28   60 1
    59   29   34 ar
    60   29   30 ar
    61   30   31 ar
    62   30   61 1
    63   31   32 ar
    64   31   62 1
    65   32   33 ar
    66   32   35 1
    67   33   34 ar
    68   33   63 1
    69   34   64 1
    70   35   65 1
