@<TRIPOS>MOLECULE
CHEMBL92900
   68    73     0     0     0
SMALL
USER_CHARGES

@<TRIPOS>ATOM
      1 C1         -0.0167    1.3784    0.0096 C.ar      1 <0>        -0.0752
      2 C2          1.1695    2.0865    0.0021 C.ar      1 <0>        -0.1412
      3 C3          2.3802    1.4093   -0.0131 C.ar      1 <0>         0.1135
      4 C4          2.3963    0.0221   -0.0206 C.ar      1 <0>        -0.2045
      5 C5          1.2074   -0.6814   -0.0130 C.ar      1 <0>        -0.0434
      6 C6          0.0021   -0.0041    0.0020 C.ar      1 <0>        -0.0949
      7 C7         -1.2934   -0.7740    0.0107 C.3       1 <0>         0.1699
      8 C8         -1.6221   -1.2112   -1.3929 C.ar      1 <0>        -0.0867
      9 C9         -1.4225   -0.3090   -2.4283 C.ar      1 <0>        -0.0917
     10 C10        -1.7127   -0.6625   -3.7293 C.ar      1 <0>        -0.1489
     11 C11        -2.2085   -1.9286   -4.0058 C.ar      1 <0>         0.1140
     12 C12        -2.4061   -2.8294   -2.9721 C.ar      1 <0>        -0.1469
     13 C13        -2.1108   -2.4712   -1.6662 C.ar      1 <0>        -0.0440
     14 C14        -2.3310   -3.4881   -0.5757 C.3       1 <0>        -0.0783
     15 C15        -2.3503   -2.7960    0.7874 C.3       1 <0>         0.0447
     16 N1         -1.1596   -1.9377    0.8927 N.3       1 <0>        -0.5204
     17 C16        -0.9323   -1.5211    2.2830 C.3       1 <0>         0.0965
     18 C17        -0.5574   -2.7222    3.1123 C.ar      1 <0>        -0.0700
     19 C18        -1.5431   -3.4663    3.7337 C.ar      1 <0>        -0.1027
     20 C19        -1.2043   -4.5692    4.4951 C.ar      1 <0>        -0.0969
     21 C20         0.1254   -4.9313    4.6376 C.ar      1 <0>         0.0360
     22 C21         1.1184   -4.1818    4.0117 C.ar      1 <0>         0.0303
     23 C22         0.7710   -3.0810    3.2455 C.ar      1 <0>        -0.0794
     24 O1          2.3316   -4.7357    4.3024 O.3       1 <0>        -0.3110
     25 C23         2.1029   -5.5859    5.4418 C.3       1 <0>         0.2134
     26 O2          0.7164   -5.9549    5.3203 O.3       1 <0>        -0.3066
     27 O3         -2.4994   -2.2833   -5.2851 O.3       1 <0>        -0.4983
     28 O4          3.5484    2.1036   -0.0209 O.3       1 <0>        -0.3292
     29 C24         4.7565    1.3405   -0.0365 C.3       1 <0>         0.0277
     30 C25         5.9580    2.2878   -0.0434 C.3       1 <0>         0.0037
     31 N2          5.9923    3.0443    1.2153 N.4       1 <0>        -0.3955
     32 C26         6.3189    2.1401    2.3476 C.3       1 <0>        -0.0104
     33 C27         6.8622    3.1078    3.4287 C.3       1 <0>        -0.1447
     34 C28         7.6591    4.1407    2.5992 C.3       1 <0>        -0.1450
     35 C29         7.0764    4.0497    1.1767 C.3       1 <0>        -0.0087
     36 H1         -0.9594    1.9052    0.0259 H         1 <0>         0.1345
     37 H2          1.1543    3.1664    0.0076 H         1 <0>         0.1325
     38 H3          3.3375   -0.5074   -0.0328 H         1 <0>         0.1260
     39 H4          1.2194   -1.7613   -0.0189 H         1 <0>         0.1394
     40 H5         -2.0920   -0.1312    0.3810 H         1 <0>         0.0658
     41 H6         -1.0374    0.6770   -2.2136 H         1 <0>         0.1240
     42 H7         -1.5550    0.0442   -4.5306 H         1 <0>         0.1289
     43 H8         -2.7924   -3.8153   -3.1848 H         1 <0>         0.1305
     44 H9         -3.2832   -3.9930   -0.7386 H         1 <0>         0.0840
     45 H10        -1.5256   -4.2222   -0.5975 H         1 <0>         0.0877
     46 H11        -3.2497   -2.1868    0.8761 H         1 <0>         0.0457
     47 H12        -2.3326   -3.5453    1.5788 H         1 <0>         0.0928
     48 H13        -0.1241   -0.7904    2.3158 H         1 <0>         0.0872
     49 H14        -1.8428   -1.0740    2.6818 H         1 <0>         0.0531
     50 H15        -2.5801   -3.1850    3.6243 H         1 <0>         0.1376
     51 H16        -1.9764   -5.1486    4.9793 H         1 <0>         0.1385
     52 H17         1.5386   -2.5006    2.7553 H         1 <0>         0.1302
     53 H18         2.7399   -6.4692    5.3945 H         1 <0>         0.1339
     54 H19         2.2738   -5.0384    6.3687 H         1 <0>         0.0858
     55 H20        -1.7592   -2.6859   -5.7596 H         1 <0>         0.3929
     56 H21         4.7979    0.7076    0.8500 H         1 <0>         0.0852
     57 H22         4.7806    0.7165   -0.9299 H         1 <0>         0.1080
     58 H23         6.8762    1.7093   -0.1448 H         1 <0>         0.1482
     59 H24         5.8702    2.9798   -0.8810 H         1 <0>         0.1411
     60 H25         5.4236    1.6298    2.7029 H         1 <0>         0.1334
     61 H26         7.0836    1.4199    2.0566 H         1 <0>         0.1348
     62 H27         6.0428    3.5904    3.9613 H         1 <0>         0.0983
     63 H28         7.5180    2.5819    4.1227 H         1 <0>         0.1172
     64 H29         7.5152    5.1427    3.0036 H         1 <0>         0.1056
     65 H30         8.7183    3.8835    2.5913 H         1 <0>         0.1044
     66 H31         7.8509    3.7340    0.4777 H         1 <0>         0.1313
     67 H32         6.6745    5.0177    0.8774 H         1 <0>         0.1329
     68 H33         5.1043    3.4961    1.3746 H         1 <0>         0.4335
@<TRIPOS>BOND
     1    1    6 ar
     2    1    2 ar
     3    1   36 1
     4    2    3 ar
     5    2   37 1
     6    3    4 ar
     7    3   28 1
     8    4    5 ar
     9    4   38 1
    10    5    6 ar
    11    5   39 1
    12    6    7 1
    13    7   16 1
    14    7    8 1
    15    7   40 1
    16    8   13 ar
    17    8    9 ar
    18    9   10 ar
    19    9   41 1
    20   10   11 ar
    21   10   42 1
    22   11   12 ar
    23   11   27 1
    24   12   13 ar
    25   12   43 1
    26   13   14 1
    27   14   15 1
    28   14   44 1
    29   14   45 1
    30   15   16 1
    31   15   46 1
    32   15   47 1
    33   16   17 1
    34   17   18 1
    35   17   48 1
    36   17   49 1
    37   18   23 ar
    38   18   19 ar
    39   19   20 ar
    40   19   50 1
    41   20   21 ar
    42   20   51 1
    43   21   26 1
    44   21   22 ar
    45   22   23 ar
    46   22   24 1
    47   23   52 1
    48   24   25 1
    49   25   26 1
    50   25   53 1
    51   25   54 1
    52   27   55 1
    53   28   29 1
    54   29   30 1
    55   29   56 1
    56   29   57 1
    57   30   31 1
    58   30   58 1
    59   30   59 1
    60   31   35 1
    61   31   32 1
    62   31   68 1
    63   32   33 1
    64   32   60 1
    65   32   61 1
    66   33   34 1
    67   33   62 1
    68   33   63 1
    69   34   35 1
    70   34   64 1
    71   34   65 1
    72   35   66 1
    73   35   67 1
