@<TRIPOS>MOLECULE
CHEMBL388418
   34    36     0     0     0
SMALL
USER_CHARGES

@<TRIPOS>ATOM
      1 C1         -0.0184    1.5028    0.0103 C.3       1 <0>        -0.1049
      2 C2          0.0021   -0.0041    0.0020 C.2       1 <0>         0.1397
      3 C3          0.0080   -0.7815   -1.1154 C.2       1 <0>        -0.1501
      4 C4          0.0295   -2.1812   -0.6541 C.ar      1 <0>        -0.0715
      5 C5          0.0434   -3.4134   -1.3044 C.ar      1 <0>        -0.0655
      6 C6          0.0623   -4.5748   -0.5643 C.ar      1 <0>        -0.1389
      7 C7          0.0677   -4.5218    0.8225 C.ar      1 <0>        -0.0980
      8 C8          0.0541   -3.3106    1.4787 C.ar      1 <0>        -0.1223
      9 C9          0.0348   -2.1262    0.7494 C.ar      1 <0>         0.0944
     10 N1          0.0233   -0.7939    1.1113 N.pl3     1 <0>        -0.4266
     11 C10         0.0290   -0.3218    2.4313 C.ar      1 <0>         0.1065
     12 C11         1.1322   -0.5458    3.2443 C.ar      1 <0>        -0.0904
     13 C12         1.1373   -0.0802    4.5442 C.ar      1 <0>        -0.1314
     14 C13         0.0404    0.6109    5.0381 C.ar      1 <0>         0.1187
     15 C14        -1.0621    0.8350    4.2264 C.ar      1 <0>        -0.1317
     16 C15        -1.0662    0.3749    2.9245 C.ar      1 <0>        -0.0934
     17 O1          0.0458    1.0683    6.3184 O.3       1 <0>        -0.4962
     18 C16        -0.0046   -0.3156   -2.5109 C.2       1 <0>         0.1838
     19 N2          0.0031   -1.1749   -3.4810 N.2       1 <0>        -0.3400
     20 O2         -0.0090   -0.7265   -4.8241 O.3       1 <0>        -0.4173
     21 H1          1.0042    1.8801    0.0026 H         1 <0>         0.0872
     22 H2         -0.5455    1.8639   -0.8728 H         1 <0>         0.0914
     23 H3         -0.5286    1.8543    0.9071 H         1 <0>         0.0768
     24 H4          0.0389   -3.4575   -2.3835 H         1 <0>         0.1324
     25 H5          0.0728   -5.5314   -1.0656 H         1 <0>         0.1259
     26 H6          0.0822   -5.4389    1.3927 H         1 <0>         0.1278
     27 H7          0.0587   -3.2806    2.5583 H         1 <0>         0.1202
     28 H8          1.9858   -1.0843    2.8601 H         1 <0>         0.1350
     29 H9          1.9953   -0.2543    5.1766 H         1 <0>         0.1400
     30 H10        -1.9158    1.3727    4.6116 H         1 <0>         0.1401
     31 H11        -1.9227    0.5532    2.2913 H         1 <0>         0.1355
     32 H12         0.4035    1.9614    6.4155 H         1 <0>         0.3964
     33 H13        -0.0202    0.7425   -2.7268 H         1 <0>         0.1214
     34 H14        -0.0019   -1.4398   -5.4770 H         1 <0>         0.4050
@<TRIPOS>BOND
     1    1    2 1
     2    1   21 1
     3    1   22 1
     4    1   23 1
     5    2   10 1
     6    2    3 2
     7    3    4 1
     8    3   18 1
     9    4    9 ar
    10    4    5 ar
    11    5    6 ar
    12    5   24 1
    13    6    7 ar
    14    6   25 1
    15    7    8 ar
    16    7   26 1
    17    8    9 ar
    18    8   27 1
    19    9   10 1
    20   10   11 1
    21   11   16 ar
    22   11   12 ar
    23   12   13 ar
    24   12   28 1
    25   13   14 ar
    26   13   29 1
    27   14   15 ar
    28   14   17 1
    29   15   16 ar
    30   15   30 1
    31   16   31 1
    32   17   32 1
    33   18   19 2
    34   18   33 1
    35   19   20 1
    36   20   34 1
