@<TRIPOS>MOLECULE
CHEMBL182237
   67    72     0     0     0
SMALL
USER_CHARGES

@<TRIPOS>ATOM
      1 C1         -2.1873    2.1981    0.9189 C.3       1 <0>        -0.1072
      2 C2         -1.9510    0.7185    0.7572 C.ar      1 <0>         0.2221
      3 C3         -1.9736    0.1380   -0.5012 C.ar      1 <0>        -0.2925
      4 C4         -1.7511   -1.2260   -0.6057 C.ar      1 <0>         0.2222
      5 N1         -1.5251   -1.9290    0.4918 N.ar      1 <0>        -0.5764
      6 C5         -1.5102   -1.3432    1.6801 C.ar      1 <0>         0.5748
      7 N2         -1.7142   -0.0409    1.8140 N.ar      1 <0>        -0.5767
      8 N3         -1.2711   -2.1091    2.8079 N.pl3     1 <0>        -0.5839
      9 C6         -1.0299   -3.5543    2.6932 C.3       1 <0>         0.1128
     10 C7          0.3078   -3.8829    3.3677 C.3       1 <0>         0.1021
     11 N4          0.3255   -3.2654    4.7012 N.pl3     1 <0>        -0.6185
     12 C8          0.0843   -1.8203    4.8158 C.3       1 <0>         0.1029
     13 C9         -1.2478   -1.4907    4.1409 C.3       1 <0>         0.1132
     14 C10         0.5659   -4.0352    5.8346 C.ar      1 <0>         0.2581
     15 C11         0.6860   -5.4176    5.7227 C.ar      1 <0>        -0.2154
     16 C12         0.9242   -6.1819    6.8422 C.ar      1 <0>        -0.0030
     17 C13         1.0456   -5.5686    8.0925 C.ar      1 <0>        -0.2280
     18 C14         0.9245   -4.1802    8.2015 C.ar      1 <0>        -0.0077
     19 C15         0.6915   -3.4209    7.0776 C.ar      1 <0>        -0.2147
     20 C16         1.3007   -6.3855    9.2954 C.2       1 <0>         0.4653
     21 O1          1.5098   -7.5807    9.1869 O.2       1 <0>        -0.4490
     22 C17         1.3024   -5.7597   10.6179 C.2       1 <0>        -0.1537
     23 C18         2.5449   -5.2705   11.2205 C.ar      1 <0>        -0.0715
     24 C19         3.8512   -5.3109   10.6826 C.ar      1 <0>        -0.0572
     25 C20         4.9142   -4.8056   11.3838 C.ar      1 <0>        -0.1383
     26 C21         4.7428   -4.2381   12.6433 C.ar      1 <0>         0.1339
     27 C22         3.4737   -4.1839   13.1966 C.ar      1 <0>        -0.1022
     28 C23         2.4002   -4.6914   12.4952 C.ar      1 <0>        -0.1019
     29 S1          0.6640   -4.8131   12.8407 S.3       1 <0>         0.0840
     30 C24         0.1253   -5.6056   11.3386 C.2       1 <0>        -0.0542
     31 C25        -1.2411   -6.0035   10.9540 C.ar      1 <0>        -0.0376
     32 C26        -1.4765   -7.2717   10.4149 C.ar      1 <0>        -0.0716
     33 C27        -2.7548   -7.6392   10.0569 C.ar      1 <0>        -0.1389
     34 C28        -3.8096   -6.7513   10.2305 C.ar      1 <0>         0.1238
     35 C29        -3.5803   -5.4895   10.7655 C.ar      1 <0>        -0.1466
     36 C30        -2.3063   -5.1159   11.1325 C.ar      1 <0>        -0.0734
     37 O2         -5.0681   -7.1176    9.8758 O.3       1 <0>        -0.4974
     38 O3          5.8100   -3.7425   13.3238 O.3       1 <0>        -0.4909
     39 C31        -1.7668   -1.9002   -1.9535 C.3       1 <0>        -0.1074
     40 H1         -1.2362    2.7269    0.8557 H         1 <0>         0.0856
     41 H2         -2.8511    2.5486    0.1286 H         1 <0>         0.0819
     42 H3         -2.6453    2.3890    1.8894 H         1 <0>         0.0812
     43 H4         -2.1609    0.7356   -1.3811 H         1 <0>         0.1426
     44 H5         -1.8331   -4.0997    3.1887 H         1 <0>         0.0710
     45 H6         -0.9880   -3.8358    1.6410 H         1 <0>         0.1105
     46 H7          0.4135   -4.9635    3.4635 H         1 <0>         0.0999
     47 H8          1.1269   -3.4844    2.7691 H         1 <0>         0.0709
     48 H9          0.0424   -1.5387    5.8680 H         1 <0>         0.0993
     49 H10         0.8875   -1.2749    4.3203 H         1 <0>         0.0700
     50 H11        -1.3498   -0.4098    4.0445 H         1 <0>         0.1105
     51 H12        -2.0669   -1.8858    4.7418 H         1 <0>         0.0703
     52 H13         0.5918   -5.8908    4.7565 H         1 <0>         0.1304
     53 H14         1.0170   -7.2543    6.7548 H         1 <0>         0.1329
     54 H15         1.0174   -3.7035    9.1662 H         1 <0>         0.1254
     55 H16         0.6019   -2.3478    7.1605 H         1 <0>         0.1291
     56 H17         4.0134   -5.7455    9.7073 H         1 <0>         0.1296
     57 H18         5.9031   -4.8487   10.9517 H         1 <0>         0.1381
     58 H19         3.3259   -3.7467   14.1731 H         1 <0>         0.1407
     59 H20        -0.6572   -7.9622   10.2790 H         1 <0>         0.1350
     60 H21        -2.9376   -8.6187    9.6404 H         1 <0>         0.1362
     61 H22        -4.4029   -4.8024   10.8980 H         1 <0>         0.1360
     62 H23        -2.1298   -4.1369   11.5531 H         1 <0>         0.1334
     63 H24        -5.5937   -7.4753   10.6044 H         1 <0>         0.3950
     64 H25         5.9901   -2.8089   13.1472 H         1 <0>         0.3962
     65 H26        -0.7622   -1.8907   -2.3762 H         1 <0>         0.0857
     66 H27        -2.1037   -2.9306   -1.8403 H         1 <0>         0.0813
     67 H28        -2.4459   -1.3669   -2.6186 H         1 <0>         0.0819
@<TRIPOS>BOND
     1    1    2 1
     2    1   40 1
     3    1   41 1
     4    1   42 1
     5    2    7 ar
     6    2    3 ar
     7    3    4 ar
     8    3   43 1
     9    4    5 ar
    10    4   39 1
    11    5    6 ar
    12    6    7 ar
    13    6    8 1
    14    8   13 1
    15    8    9 1
    16    9   10 1
    17    9   44 1
    18    9   45 1
    19   10   11 1
    20   10   46 1
    21   10   47 1
    22   11   12 1
    23   11   14 1
    24   12   13 1
    25   12   48 1
    26   12   49 1
    27   13   50 1
    28   13   51 1
    29   14   19 ar
    30   14   15 ar
    31   15   16 ar
    32   15   52 1
    33   16   17 ar
    34   16   53 1
    35   17   18 ar
    36   17   20 1
    37   18   19 ar
    38   18   54 1
    39   19   55 1
    40   20   21 2
    41   20   22 1
    42   22   30 2
    43   22   23 1
    44   23   28 ar
    45   23   24 ar
    46   24   25 ar
    47   24   56 1
    48   25   26 ar
    49   25   57 1
    50   26   27 ar
    51   26   38 1
    52   27   28 ar
    53   27   58 1
    54   28   29 1
    55   29   30 1
    56   30   31 1
    57   31   36 ar
    58   31   32 ar
    59   32   33 ar
    60   32   59 1
    61   33   34 ar
    62   33   60 1
    63   34   35 ar
    64   34   37 1
    65   35   36 ar
    66   35   61 1
    67   36   62 1
    68   37   63 1
    69   38   64 1
    70   39   65 1
    71   39   66 1
    72   39   67 1
