@<TRIPOS>MOLECULE
CHEMBL209014
   42    46     0     0     0
SMALL
USER_CHARGES

@<TRIPOS>ATOM
      1 C1         -0.0167    1.3781    0.0096 C.ar      1 <0>        -0.1121
      2 C2          1.1709    2.0855    0.0021 C.ar      1 <0>        -0.1159
      3 C3          2.3773    1.4107   -0.0130 C.ar      1 <0>        -0.1042
      4 C4          2.3960    0.0285   -0.0201 C.ar      1 <0>        -0.1155
      5 C5          1.2084   -0.6789   -0.0117 C.ar      1 <0>        -0.1083
      6 C6          0.0021   -0.0041    0.0020 C.ar      1 <0>        -0.1156
      7 C7          3.7112   -0.7071   -0.0376 C.3       1 <0>         0.1881
      8 C8          4.0511   -1.1468    1.3578 C.2       1 <0>        -0.0911
      9 C9          3.6222   -2.3402    1.8171 C.2       1 <0>        -0.0998
     10 C10         3.9073   -2.7554    3.2326 C.3       1 <0>         0.1141
     11 O1          5.1340   -2.1857    3.6886 O.3       1 <0>        -0.3046
     12 C11         5.3576   -0.8708    3.4365 C.ar      1 <0>         0.1512
     13 C12         4.8452   -0.2990    2.2596 C.ar      1 <0>        -0.1223
     14 C13         5.0893    1.0415    1.9706 C.ar      1 <0>        -0.0589
     15 C14         5.8236    1.8077    2.8527 C.ar      1 <0>        -0.1681
     16 C15         6.3160    1.2466    4.0243 C.ar      1 <0>         0.1482
     17 C16         6.0838   -0.0912    4.3155 C.ar      1 <0>        -0.1680
     18 O2          7.0298    2.0118    4.8909 O.3       1 <0>        -0.4937
     19 C17         2.8961   -3.2241    0.8923 C.ar      1 <0>        -0.1279
     20 C18         2.2137   -4.3503    1.3474 C.ar      1 <0>        -0.0563
     21 C19         1.5312   -5.1444    0.4490 C.ar      1 <0>        -0.1694
     22 C20         1.5226   -4.8231   -0.9030 C.ar      1 <0>         0.1498
     23 C21         2.2059   -3.7065   -1.3650 C.ar      1 <0>        -0.1719
     24 C22         2.8994   -2.9075   -0.4764 C.ar      1 <0>         0.1542
     25 O3          3.6088   -1.8338   -0.9087 O.3       1 <0>        -0.2929
     26 O4          0.8411   -5.6073   -1.7786 O.3       1 <0>        -0.4931
     27 H1         -0.9591    1.9053    0.0259 H         1 <0>         0.1252
     28 H2          1.1563    3.1654    0.0076 H         1 <0>         0.1271
     29 H3          3.3051    1.9634   -0.0196 H         1 <0>         0.1245
     30 H4          1.2231   -1.7588   -0.0176 H         1 <0>         0.1248
     31 H5         -0.9258   -0.5567    0.0082 H         1 <0>         0.1241
     32 H6          4.4914   -0.0397   -0.4035 H         1 <0>         0.1333
     33 H7          3.0943   -2.4191    3.8761 H         1 <0>         0.0789
     34 H8          3.9763   -3.8421    3.2810 H         1 <0>         0.1214
     35 H9          4.7061    1.4790    1.0605 H         1 <0>         0.1333
     36 H10         6.0159    2.8472    2.6316 H         1 <0>         0.1371
     37 H11         6.4697   -0.5211    5.2280 H         1 <0>         0.1430
     38 H12         6.4909    2.4542    5.5609 H         1 <0>         0.3966
     39 H13         2.2191   -4.6006    2.3980 H         1 <0>         0.1365
     40 H14         1.0021   -6.0190    0.7976 H         1 <0>         0.1379
     41 H15         2.1952   -3.4626   -2.4170 H         1 <0>         0.1434
     42 H16        -0.0793   -5.3418   -1.9104 H         1 <0>         0.3968
@<TRIPOS>BOND
     1    1    6 ar
     2    1    2 ar
     3    1   27 1
     4    2    3 ar
     5    2   28 1
     6    3    4 ar
     7    3   29 1
     8    4    5 ar
     9    4    7 1
    10    5    6 ar
    11    5   30 1
    12    6   31 1
    13    7   25 1
    14    7    8 1
    15    7   32 1
    16    8   13 1
    17    8    9 2
    18    9   10 1
    19    9   19 1
    20   10   11 1
    21   10   33 1
    22   10   34 1
    23   11   12 1
    24   12   17 ar
    25   12   13 ar
    26   13   14 ar
    27   14   15 ar
    28   14   35 1
    29   15   16 ar
    30   15   36 1
    31   16   17 ar
    32   16   18 1
    33   17   37 1
    34   18   38 1
    35   19   24 ar
    36   19   20 ar
    37   20   21 ar
    38   20   39 1
    39   21   22 ar
    40   21   40 1
    41   22   23 ar
    42   22   26 1
    43   23   24 ar
    44   23   41 1
    45   24   25 1
    46   26   42 1
