@<TRIPOS>MOLECULE
CHEMBL89994
   57    60     0     0     0
SMALL
USER_CHARGES

@<TRIPOS>ATOM
      1 C1         -0.0044    1.3603    0.2262 C.ar      1 <0>        -0.0554
      2 C2          1.1818    2.0683    0.2191 C.ar      1 <0>        -0.1385
      3 C3          2.3802    1.4092   -0.0131 C.ar      1 <0>         0.1219
      4 C4          2.3841    0.0401   -0.2377 C.ar      1 <0>        -0.2019
      5 C5          1.1952   -0.6633   -0.2296 C.ar      1 <0>        -0.0600
      6 C6          0.0021   -0.0041    0.0020 C.ar      1 <0>        -0.1189
      7 C7         -1.2934   -0.7740    0.0107 C.3       1 <0>         0.2315
      8 C8         -1.4330   -1.5359   -1.2835 C.ar      1 <0>        -0.1054
      9 C9         -1.6938   -0.8083   -2.4373 C.ar      1 <0>        -0.0830
     10 C10        -1.8224   -1.4443   -3.6537 C.ar      1 <0>        -0.1421
     11 C11        -1.6884   -2.8236   -3.7249 C.ar      1 <0>         0.1204
     12 C12        -1.4325   -3.5481   -2.5738 C.ar      1 <0>        -0.1439
     13 C13        -1.3094   -2.9060   -1.3484 C.ar      1 <0>        -0.0512
     14 C14        -1.0582   -3.7621   -0.1350 C.3       1 <0>        -0.1018
     15 C15        -0.4798   -2.9294    1.0079 C.3       1 <0>         0.0854
     16 N1         -1.2964   -1.7114    1.1388 N.am      1 <0>        -0.5820
     17 C16        -2.0183   -1.4677    2.2506 C.2       1 <0>         0.4912
     18 O1         -2.6830   -0.4566    2.3325 O.2       1 <0>        -0.4677
     19 C17        -1.9995   -2.4517    3.3919 C.3       1 <0>         0.4537
     20 F1         -2.8190   -1.9836    4.4246 F         1 <0>        -0.1468
     21 F2         -2.4720   -3.6910    2.9470 F         1 <0>        -0.1625
     22 F3         -0.6901   -2.5938    3.8635 F         1 <0>        -0.1669
     23 O2         -1.8085   -3.4602   -4.9196 O.3       1 <0>        -0.4961
     24 O3          3.5485    2.1035   -0.0209 O.3       1 <0>        -0.3272
     25 C18         4.7436    1.3596   -0.2667 C.3       1 <0>         0.0269
     26 C19         5.9471    2.3039   -0.2373 C.3       1 <0>         0.0036
     27 N2          6.1039    2.8556    1.1151 N.4       1 <0>        -0.3960
     28 C20         6.5261    1.7882    2.0578 C.3       1 <0>        -0.0104
     29 C21         7.1749    2.5793    3.2213 C.3       1 <0>        -0.1448
     30 C22         7.9003    3.7336    2.4924 C.3       1 <0>        -0.1451
     31 C23         7.1880    3.8614    1.1331 C.3       1 <0>        -0.0087
     32 H1         -0.9372    1.8722    0.4113 H         1 <0>         0.1406
     33 H2          1.1761    3.1340    0.3939 H         1 <0>         0.1371
     34 H3          3.3157   -0.4752   -0.4190 H         1 <0>         0.1296
     35 H4          1.1977   -1.7291   -0.4044 H         1 <0>         0.1334
     36 H5         -2.1273   -0.0797    0.1138 H         1 <0>         0.1232
     37 H6         -1.7972    0.2653   -2.3812 H         1 <0>         0.1298
     38 H7         -2.0266   -0.8720   -4.5465 H         1 <0>         0.1347
     39 H8         -1.3277   -4.6216   -2.6289 H         1 <0>         0.1338
     40 H9         -1.9976   -4.2107    0.1880 H         1 <0>         0.0942
     41 H10        -0.3545   -4.5532   -0.3940 H         1 <0>         0.0998
     42 H11        -0.5175   -3.5002    1.9358 H         1 <0>         0.0985
     43 H12         0.5518   -2.6593    0.7820 H         1 <0>         0.0942
     44 H13        -0.9751   -3.5531   -5.4012 H         1 <0>         0.3946
     45 H14         4.8615    0.5968    0.5030 H         1 <0>         0.0857
     46 H15         4.6800    0.8824   -1.2445 H         1 <0>         0.1088
     47 H16         6.8472    1.7539   -0.5120 H         1 <0>         0.1490
     48 H17         5.7881    3.1172   -0.9454 H         1 <0>         0.1417
     49 H18         5.6633    1.2233    2.4108 H         1 <0>         0.1330
     50 H19         7.2546    1.1269    1.5889 H         1 <0>         0.1350
     51 H20         6.4122    2.9681    3.8960 H         1 <0>         0.0985
     52 H21         7.8876    1.9559    3.7614 H         1 <0>         0.1176
     53 H22         7.8027    4.6595    3.0592 H         1 <0>         0.1059
     54 H23         8.9521    3.4873    2.3467 H         1 <0>         0.1046
     55 H24         7.8920    3.6631    0.3249 H         1 <0>         0.1315
     56 H25         6.7683    4.8617    1.0264 H         1 <0>         0.1332
     57 H26         5.2381    3.2716    1.4241 H         1 <0>         0.4336
@<TRIPOS>BOND
     1    1    6 ar
     2    1    2 ar
     3    1   32 1
     4    2    3 ar
     5    2   33 1
     6    3    4 ar
     7    3   24 1
     8    4    5 ar
     9    4   34 1
    10    5    6 ar
    11    5   35 1
    12    6    7 1
    13    7   16 1
    14    7    8 1
    15    7   36 1
    16    8   13 ar
    17    8    9 ar
    18    9   10 ar
    19    9   37 1
    20   10   11 ar
    21   10   38 1
    22   11   12 ar
    23   11   23 1
    24   12   13 ar
    25   12   39 1
    26   13   14 1
    27   14   15 1
    28   14   40 1
    29   14   41 1
    30   15   16 1
    31   15   42 1
    32   15   43 1
    33   16   17 am
    34   17   18 2
    35   17   19 1
    36   19   20 1
    37   19   21 1
    38   19   22 1
    39   23   44 1
    40   24   25 1
    41   25   26 1
    42   25   45 1
    43   25   46 1
    44   26   27 1
    45   26   47 1
    46   26   48 1
    47   27   31 1
    48   27   28 1
    49   27   57 1
    50   28   29 1
    51   28   49 1
    52   28   50 1
    53   29   30 1
    54   29   51 1
    55   29   52 1
    56   30   31 1
    57   30   53 1
    58   30   54 1
    59   31   55 1
    60   31   56 1
