@<TRIPOS>MOLECULE
CHEMBL1087557
   65    70     0     0     0
SMALL
USER_CHARGES

@<TRIPOS>ATOM
      1 C1         -0.0164    1.3773   -0.0547 C.ar      1 <0>        -0.0580
      2 C2          1.1697    2.0854   -0.0624 C.ar      1 <0>        -0.1493
      3 C3          2.3801    1.4093   -0.0131 C.ar      1 <0>         0.1395
      4 C4          2.3960    0.0233    0.0439 C.ar      1 <0>        -0.2039
      5 C5          1.2071   -0.6802    0.0513 C.ar      1 <0>        -0.0633
      6 C6          0.0021   -0.0041    0.0020 C.ar      1 <0>        -0.1524
      7 C7         -1.2934   -0.7740    0.0107 C.3       1 <0>         0.1935
      8 H1         -2.0997   -0.1244   -0.3298 H         1 <0>         0.1305
      9 C8         -1.5866   -1.2357    1.4120 C.2       1 <0>        -0.1051
     10 C9         -1.1299   -2.4395    1.8287 C.2       1 <0>        -0.0451
     11 C10        -1.4430   -2.9122    3.2220 C.3       1 <0>        -0.1191
     12 C11        -0.6172   -2.1389    4.2485 C.3       1 <0>         0.0751
     13 O1         -0.6164   -0.7458    3.9658 O.3       1 <0>        -0.3216
     14 C12        -1.7993   -0.1682    3.6334 C.ar      1 <0>         0.1343
     15 C13        -2.3300   -0.3844    2.3504 C.ar      1 <0>        -0.0790
     16 C14        -3.5413    0.2038    1.9903 C.ar      1 <0>        -0.0753
     17 C15        -4.2148    0.9944    2.8985 C.ar      1 <0>        -0.1496
     18 C16        -3.6902    1.2050    4.1675 C.ar      1 <0>         0.1283
     19 C17        -2.4836    0.6237    4.5343 C.ar      1 <0>        -0.1582
     20 O2         -4.3618    1.9843    5.0550 O.3       1 <0>        -0.4952
     21 C18        -0.3531   -3.2590    0.8892 C.ar      1 <0>        -0.1273
     22 C19         0.4240   -4.3318    1.3187 C.ar      1 <0>        -0.0572
     23 C20         1.1362   -5.0712    0.3969 C.ar      1 <0>        -0.1702
     24 C21         1.0801   -4.7483   -0.9535 C.ar      1 <0>         0.1465
     25 C22         0.3073   -3.6806   -1.3900 C.ar      1 <0>        -0.1739
     26 C23        -0.4119   -2.9340   -0.4780 C.ar      1 <0>         0.1528
     27 O3         -1.1834   -1.8906   -0.8725 O.3       1 <0>        -0.2967
     28 O4          1.7866   -5.4821   -1.8527 O.3       1 <0>        -0.4948
     29 O5          3.5484    2.1036   -0.0209 O.3       1 <0>        -0.3119
     30 C24         4.7562    1.3418    0.0319 C.3       1 <0>         0.0646
     31 C25         5.9577    2.2889    0.0142 C.3       1 <0>        -0.1344
     32 C26         7.2509    1.4732    0.0707 C.3       1 <0>         0.1018
     33 N1          8.4014    2.3800    0.0538 N.am      1 <0>        -0.5745
     34 C27         8.9868    2.7866   -1.0795 C.2       1 <0>         0.5254
     35 O6          8.6488    2.4659   -2.1986 O.2       1 <0>        -0.4770
     36 C28        10.1368    3.7103   -0.7421 C.3       1 <0>        -0.1574
     37 C29        10.1143    3.7677    0.7989 C.3       1 <0>        -0.1573
     38 C30         8.9504    2.8748    1.1701 C.2       1 <0>         0.5254
     39 O7          8.5760    2.6422    2.2994 O.2       1 <0>        -0.4771
     40 H2         -0.9591    1.9033   -0.0886 H         1 <0>         0.1311
     41 H3          1.1547    3.1644   -0.1071 H         1 <0>         0.1338
     42 H4          3.3370   -0.5053    0.0820 H         1 <0>         0.1281
     43 H5          1.2189   -1.7592    0.0956 H         1 <0>         0.1274
     44 H6         -2.5030   -2.7588    3.4241 H         1 <0>         0.0842
     45 H7         -1.2123   -3.9745    3.3016 H         1 <0>         0.0936
     46 H8         -1.0379   -2.3016    5.2408 H         1 <0>         0.0635
     47 H9          0.4086   -2.5071    4.2319 H         1 <0>         0.1024
     48 H10        -3.9507    0.0417    1.0041 H         1 <0>         0.1354
     49 H11        -5.1532    1.4517    2.6216 H         1 <0>         0.1362
     50 H12        -2.0808    0.7910    5.5223 H         1 <0>         0.1386
     51 H13        -4.9888    1.4992    5.6087 H         1 <0>         0.3944
     52 H14         0.4693   -4.5834    2.3680 H         1 <0>         0.1347
     53 H15         1.7399   -5.9040    0.7262 H         1 <0>         0.1357
     54 H16         0.2687   -3.4345   -2.4409 H         1 <0>         0.1417
     55 H17         1.3004   -6.2360   -2.2138 H         1 <0>         0.3965
     56 H18         4.7731    0.7505    0.9474 H         1 <0>         0.0676
     57 H19         4.8046    0.6773   -0.8308 H         1 <0>         0.0678
     58 H20         5.9408    2.8802   -0.9013 H         1 <0>         0.0820
     59 H21         5.9093    2.9534    0.8768 H         1 <0>         0.0819
     60 H22         7.2678    0.8819    0.9863 H         1 <0>         0.0987
     61 H23         7.2993    0.8087   -0.7919 H         1 <0>         0.0988
     62 H24        11.0797    3.2943   -1.0968 H         1 <0>         0.1232
     63 H25         9.9700    4.7009   -1.1654 H         1 <0>         0.1231
     64 H26        11.0461    3.3801    1.2108 H         1 <0>         0.1235
     65 H27         9.9364    4.7867    1.1423 H         1 <0>         0.1228
@<TRIPOS>BOND
     1    1    6 ar
     2    1    2 ar
     3    1   40 1
     4    2    3 ar
     5    2   41 1
     6    3    4 ar
     7    3   29 1
     8    4    5 ar
     9    4   42 1
    10    5    6 ar
    11    5   43 1
    12    6    7 1
    13    7    8 1
    14    7   27 1
    15    7    9 1
    16    9   15 1
    17    9   10 2
    18   10   11 1
    19   10   21 1
    20   11   12 1
    21   11   44 1
    22   11   45 1
    23   12   13 1
    24   12   46 1
    25   12   47 1
    26   13   14 1
    27   14   19 ar
    28   14   15 ar
    29   15   16 ar
    30   16   17 ar
    31   16   48 1
    32   17   18 ar
    33   17   49 1
    34   18   19 ar
    35   18   20 1
    36   19   50 1
    37   20   51 1
    38   21   26 ar
    39   21   22 ar
    40   22   23 ar
    41   22   52 1
    42   23   24 ar
    43   23   53 1
    44   24   25 ar
    45   24   28 1
    46   25   26 ar
    47   25   54 1
    48   26   27 1
    49   28   55 1
    50   29   30 1
    51   30   31 1
    52   30   56 1
    53   30   57 1
    54   31   32 1
    55   31   58 1
    56   31   59 1
    57   32   33 1
    58   32   60 1
    59   32   61 1
    60   33   38 am
    61   33   34 am
    62   34   35 2
    63   34   36 1
    64   36   37 1
    65   36   62 1
    66   36   63 1
    67   37   38 1
    68   37   64 1
    69   37   65 1
    70   38   39 2
