@<TRIPOS>MOLECULE
CHEMBL551
   48    51     0     0     0
SMALL
USER_CHARGES

@<TRIPOS>ATOM
      1 C1         -0.0187    1.5258    0.0104 C.3       1 <0>        -0.1354
      2 C2          0.0021   -0.0041    0.0020 C.3       1 <0>        -0.0446
      3 C3         -1.4158   -0.5376    0.0743 C.3       1 <0>        -0.1008
      4 C4         -2.0776    0.1004    1.3059 C.3       1 <0>        -0.1180
      5 C5         -1.2987   -0.1969    2.5836 C.3       1 <0>        -0.0711
      6 C6          0.1785    0.2032    2.4579 C.3       1 <0>        -0.0760
      7 C7          0.7514   -0.5272    1.2569 C.3       1 <0>        -0.0828
      8 C8          2.2067   -0.1924    0.9110 C.3       1 <0>        -0.1131
      9 C9          2.3039   -0.5736   -0.5914 C.3       1 <0>        -0.1451
     10 C10         0.8625   -0.5030   -1.1542 C.3       1 <0>         0.2506
     11 C11         0.4162   -1.8387   -1.5826 C.1       1 <0>        -0.2102
     12 C12         0.0604   -2.9040   -1.9243 C.1       1 <0>        -0.1803
     13 O1          0.8024    0.4146   -2.2480 O.3       1 <0>        -0.5406
     14 C13         0.9212   -0.2263    3.7266 C.3       1 <0>        -0.1132
     15 C14         0.3814    0.5679    4.9179 C.3       1 <0>        -0.0972
     16 C15        -1.1223    0.3756    4.9929 C.2       1 <0>        -0.0244
     17 C16        -1.6475    0.0516    6.1742 C.2       1 <0>        -0.2441
     18 C17        -3.0970   -0.1301    6.3074 C.2       1 <0>         0.3877
     19 O2         -3.5792   -0.7760    7.2143 O.2       1 <0>        -0.4582
     20 C18        -3.9607    0.5325    5.2519 C.3       1 <0>        -0.1681
     21 C19        -3.3883    0.1505    3.8876 C.3       1 <0>        -0.1098
     22 C20        -1.9353    0.5693    3.7500 C.3       1 <0>        -0.0596
     23 H1          1.0039    1.9031    0.0027 H         1 <0>         0.0577
     24 H2         -0.5459    1.8868   -0.8726 H         1 <0>         0.0626
     25 H3         -0.5289    1.8773    0.9072 H         1 <0>         0.0643
     26 H4         -1.9632   -0.2607   -0.8267 H         1 <0>         0.0670
     27 H5         -1.3995   -1.6222    0.1815 H         1 <0>         0.0646
     28 H6         -2.1276    1.1799    1.1632 H         1 <0>         0.0703
     29 H7         -3.0900   -0.2904    1.4078 H         1 <0>         0.0664
     30 H8         -1.3515   -1.2658    2.7908 H         1 <0>         0.0716
     31 H9          0.2617    1.2803    2.3134 H         1 <0>         0.0875
     32 H10         0.6125   -1.6031    1.3628 H         1 <0>         0.0782
     33 H11         2.4020    0.8706    1.0526 H         1 <0>         0.0754
     34 H12         2.8929   -0.7943    1.5068 H         1 <0>         0.0705
     35 H13         2.9456    0.1343   -1.1162 H         1 <0>         0.0809
     36 H14         2.6974   -1.5847   -0.6961 H         1 <0>         0.0721
     37 H15        -0.2579   -3.8568   -2.2299 H         1 <0>         0.2181
     38 H16         1.3308    0.1496   -3.0133 H         1 <0>         0.3785
     39 H17         0.7643   -1.2913    3.8976 H         1 <0>         0.0658
     40 H18         1.9867   -0.0283    3.6095 H         1 <0>         0.0727
     41 H19         0.8423    0.2062    5.8371 H         1 <0>         0.0777
     42 H20         0.6083    1.6257    4.7848 H         1 <0>         0.0846
     43 H21        -1.0059   -0.0776    7.0333 H         1 <0>         0.1334
     44 H22        -4.9874    0.1760    5.3359 H         1 <0>         0.0924
     45 H23        -3.9321    1.6150    5.3758 H         1 <0>         0.0997
     46 H24        -3.4601   -0.9299    3.7619 H         1 <0>         0.0688
     47 H25        -3.9738    0.6373    3.1076 H         1 <0>         0.0828
     48 H26        -1.9237    1.6304    3.5010 H         1 <0>         0.0907
@<TRIPOS>BOND
     1    1    2 1
     2    1   23 1
     3    1   24 1
     4    1   25 1
     5    2    7 1
     6    2   10 1
     7    2    3 1
     8    3    4 1
     9    3   26 1
    10    3   27 1
    11    4    5 1
    12    4   28 1
    13    4   29 1
    14    5   22 1
    15    5    6 1
    16    5   30 1
    17    6    7 1
    18    6   14 1
    19    6   31 1
    20    7    8 1
    21    7   32 1
    22    8    9 1
    23    8   33 1
    24    8   34 1
    25    9   10 1
    26    9   35 1
    27    9   36 1
    28   10   11 1
    29   10   13 1
    30   11   12 3
    31   12   37 1
    32   13   38 1
    33   14   15 1
    34   14   39 1
    35   14   40 1
    36   15   16 1
    37   15   41 1
    38   15   42 1
    39   16   22 1
    40   16   17 2
    41   17   18 1
    42   17   43 1
    43   18   19 2
    44   18   20 1
    45   20   21 1
    46   20   44 1
    47   20   45 1
    48   21   22 1
    49   21   46 1
    50   21   47 1
    51   22   48 1
