@<TRIPOS>MOLECULE
CHEMBL361056
   67    72     0     0     0
SMALL
USER_CHARGES

@<TRIPOS>ATOM
      1 C1          0.2141   -0.0973   -0.9168 C.ar      1 <0>        -0.0873
      2 C2          1.3361    0.6973   -1.0512 C.ar      1 <0>        -0.1389
      3 C3          1.3229    2.0002   -0.5750 C.ar      1 <0>         0.1157
      4 C4          0.1824    2.5018    0.0352 C.ar      1 <0>        -0.1461
      5 C5         -0.9370    1.7032    0.1671 C.ar      1 <0>        -0.0837
      6 C6         -0.9214    0.4049   -0.3083 C.ar      1 <0>        -0.0897
      7 C7         -2.1441   -0.4640   -0.1634 C.3       1 <0>        -0.0641
      8 H1         -3.0128    0.1524    0.0679 H         1 <0>         0.1382
      9 C8         -1.9231   -1.4991    0.9523 C.3       1 <0>         0.1497
     10 H2         -2.7563   -2.2017    0.9680 H         1 <0>         0.0962
     11 O1         -0.7151   -2.2009    0.7008 O.3       1 <0>        -0.3049
     12 C9         -0.5207   -2.9096   -0.4360 C.ar      1 <0>         0.1212
     13 C10         0.4181   -3.9381   -0.4020 C.ar      1 <0>        -0.1140
     14 C11         0.6781   -4.6905   -1.5287 C.ar      1 <0>        -0.1061
     15 C12         0.0053   -4.4298   -2.7135 C.ar      1 <0>         0.0985
     16 C13        -0.9351   -3.4133   -2.7577 C.ar      1 <0>        -0.0901
     17 C14        -1.2023   -2.6603   -1.6220 C.ar      1 <0>        -0.1478
     18 S1         -2.4328   -1.3918   -1.7029 S.3       1 <0>        -0.0841
     19 O2          0.2676   -5.1674   -3.8253 O.3       1 <0>        -0.4915
     20 C15        -1.8319   -0.7955    2.2818 C.ar      1 <0>        -0.1046
     21 C16        -0.6515   -0.1816    2.6582 C.ar      1 <0>        -0.0346
     22 C17        -0.5652    0.4637    3.8766 C.ar      1 <0>        -0.1416
     23 C18        -1.6642    0.4957    4.7226 C.ar      1 <0>         0.1245
     24 C19        -2.8476   -0.1206    4.3424 C.ar      1 <0>        -0.2036
     25 C20        -2.9304   -0.7601    3.1207 C.ar      1 <0>        -0.0588
     26 O3         -1.5817    1.1295    5.9220 O.3       1 <0>        -0.3265
     27 C21        -2.7524    1.1225    6.7414 C.3       1 <0>         0.0260
     28 C22        -2.4698    1.8785    8.0411 C.3       1 <0>        -0.0071
     29 N1         -2.1866    3.2874    7.7364 N.4       1 <0>        -0.3750
     30 C23        -1.7518    3.9663    8.9597 C.3       1 <0>        -0.0062
     31 C24        -2.6958    5.1241    9.2898 C.3       1 <0>        -0.1036
     32 C25        -4.1136    4.5752    9.4827 C.3       1 <0>        -0.1312
     33 C26        -4.5307    3.8335    8.2086 C.3       1 <0>        -0.1402
     34 C27        -3.3927    3.9130    7.1890 C.3       1 <0>         0.0239
     35 C28        -3.1120    5.3778    6.8477 C.3       1 <0>        -0.1379
     36 C29        -2.6966    6.1180    8.1232 C.3       1 <0>        -0.1328
     37 O4          2.4256    2.7838   -0.7056 O.3       1 <0>        -0.4999
     38 H3          0.2223   -1.1103   -1.2913 H         1 <0>         0.1322
     39 H4          2.2228    0.3044   -1.5262 H         1 <0>         0.1315
     40 H5          0.1698    3.5157    0.4070 H         1 <0>         0.1293
     41 H6         -1.8251    2.0932    0.6420 H         1 <0>         0.1234
     42 H7          0.9478   -4.1484    0.5154 H         1 <0>         0.1413
     43 H8          1.4084   -5.4852   -1.4883 H         1 <0>         0.1429
     44 H9         -1.4613   -3.2059   -3.6778 H         1 <0>         0.1405
     45 H10        -0.2871   -5.9544   -3.9151 H         1 <0>         0.3946
     46 H11         0.2038   -0.2069    1.9992 H         1 <0>         0.1388
     47 H12         0.3572    0.9424    4.1705 H         1 <0>         0.1352
     48 H13        -3.7045   -0.0970    4.9993 H         1 <0>         0.1312
     49 H14        -3.8527   -1.2363    2.8224 H         1 <0>         0.1347
     50 H15        -3.5710    1.6074    6.2096 H         1 <0>         0.0862
     51 H16        -3.0282    0.0935    6.9722 H         1 <0>         0.1095
     52 H17        -3.3400    1.8159    8.6945 H         1 <0>         0.1509
     53 H18        -1.6083    1.4344    8.5398 H         1 <0>         0.1435
     54 H19        -1.7506    3.2552    9.7858 H         1 <0>         0.1305
     55 H20        -0.7425    4.3528    8.8185 H         1 <0>         0.1313
     56 H21        -2.3589    5.6246   10.1976 H         1 <0>         0.1208
     57 H22        -4.1273    3.8868   10.3276 H         1 <0>         0.0830
     58 H23        -4.8026    5.3992    9.6682 H         1 <0>         0.0935
     59 H24        -4.7359    2.7894    8.4452 H         1 <0>         0.0871
     60 H25        -5.4254    4.2971    7.7932 H         1 <0>         0.1111
     61 H26        -3.6877    3.3912    6.2786 H         1 <0>         0.1336
     62 H27        -2.3068    5.4337    6.1151 H         1 <0>         0.0883
     63 H28        -4.0122    5.8355    6.4374 H         1 <0>         0.1106
     64 H29        -3.4050    6.9208    8.3273 H         1 <0>         0.0927
     65 H30        -1.6968    6.5331    7.9958 H         1 <0>         0.0840
     66 H31         2.4506    3.2939   -1.5268 H         1 <0>         0.3954
     67 H32        -1.4478    3.3360    7.0509 H         1 <0>         0.4303
@<TRIPOS>BOND
     1    1    6 ar
     2    1    2 ar
     3    1   38 1
     4    2    3 ar
     5    2   39 1
     6    3    4 ar
     7    3   37 1
     8    4    5 ar
     9    4   40 1
    10    5    6 ar
    11    5   41 1
    12    6    7 1
    13    7    8 1
    14    7   18 1
    15    7    9 1
    16    9   10 1
    17    9   11 1
    18    9   20 1
    19   11   12 1
    20   12   17 ar
    21   12   13 ar
    22   13   14 ar
    23   13   42 1
    24   14   15 ar
    25   14   43 1
    26   15   16 ar
    27   15   19 1
    28   16   17 ar
    29   16   44 1
    30   17   18 1
    31   19   45 1
    32   20   25 ar
    33   20   21 ar
    34   21   22 ar
    35   21   46 1
    36   22   23 ar
    37   22   47 1
    38   23   24 ar
    39   23   26 1
    40   24   25 ar
    41   24   48 1
    42   25   49 1
    43   26   27 1
    44   27   28 1
    45   27   50 1
    46   27   51 1
    47   28   29 1
    48   28   52 1
    49   28   53 1
    50   29   34 1
    51   29   30 1
    52   29   67 1
    53   30   31 1
    54   30   54 1
    55   30   55 1
    56   31   36 1
    57   31   32 1
    58   31   56 1
    59   32   33 1
    60   32   57 1
    61   32   58 1
    62   33   34 1
    63   33   59 1
    64   33   60 1
    65   34   35 1
    66   34   61 1
    67   35   36 1
    68   35   62 1
    69   35   63 1
    70   36   64 1
    71   36   65 1
    72   37   66 1
