@<TRIPOS>MOLECULE
CHEMBL329312
   50    55     0     0     0
SMALL
USER_CHARGES

@<TRIPOS>ATOM
      1 C1         -0.0497    1.3245   -0.0476 C.ar      1 <0>        -0.1168
      2 C2          1.1265    2.0706   -0.0532 C.ar      1 <0>        -0.1107
      3 C3          2.3441    1.4588   -0.0505 C.ar      1 <0>        -0.1075
      4 C4          2.4177    0.0595   -0.0420 C.ar      1 <0>        -0.0247
      5 C5          1.2233   -0.7010   -0.0363 C.ar      1 <0>        -0.0506
      6 C6         -0.0155   -0.0365   -0.0393 C.ar      1 <0>        -0.1029
      7 C7          1.2958   -2.1047   -0.0273 C.ar      1 <0>        -0.0953
      8 C8          2.5084   -2.7272   -0.0241 C.ar      1 <0>        -0.1144
      9 C9          3.6907   -1.9984   -0.0292 C.ar      1 <0>        -0.0830
     10 C10         3.6664   -0.6112   -0.0385 C.ar      1 <0>        -0.0194
     11 C11         4.9260    0.1570   -0.0442 C.2       1 <0>        -0.0282
     12 C12         5.6888    0.6222    1.1234 C.ar      1 <0>        -0.1401
     13 C13         5.5080    0.5134    2.5031 C.ar      1 <0>        -0.0352
     14 C14         6.4198    1.0701    3.3535 C.ar      1 <0>        -0.1580
     15 C15         7.5293    1.7464    2.8502 C.ar      1 <0>         0.1520
     16 C16         7.7230    1.8635    1.4852 C.ar      1 <0>        -0.1433
     17 C17         6.8054    1.3022    0.6059 C.ar      1 <0>         0.0902
     18 O1          6.7364    1.2596   -0.7398 O.3       1 <0>        -0.1694
     19 C18         5.6416    0.5863   -1.1523 C.2       1 <0>        -0.0382
     20 C19         5.2678    0.3501   -2.5450 C.2       1 <0>         0.4763
     21 O2          4.3053   -0.3493   -2.8072 O.2       1 <0>        -0.4103
     22 C20         6.0565    0.9593   -3.6348 C.ar      1 <0>        -0.1652
     23 C21         7.2362    1.6500   -3.3445 C.ar      1 <0>        -0.0619
     24 C22         7.9691    2.2177   -4.3628 C.ar      1 <0>        -0.1263
     25 C23         7.5407    2.1068   -5.6808 C.ar      1 <0>         0.0892
     26 C24         6.3670    1.4178   -5.9770 C.ar      1 <0>         0.0361
     27 C25         5.6287    0.8419   -4.9594 C.ar      1 <0>        -0.0472
     28 O3          5.9383    1.2937   -7.2632 O.3       1 <0>        -0.3032
     29 C26         6.5064    2.1941   -8.2204 C.3       1 <0>         0.0192
     30 C27         8.0254    2.2289   -8.0046 C.3       1 <0>         0.0180
     31 O4          8.2784    2.6791   -6.6694 O.3       1 <0>        -0.3016
     32 O5          8.4284    2.2958    3.7072 O.3       1 <0>        -0.4905
     33 H1         -1.0025    1.8329   -0.0453 H         1 <0>         0.1244
     34 H2          1.0727    3.1493   -0.0601 H         1 <0>         0.1233
     35 H3          3.2482    2.0497   -0.0553 H         1 <0>         0.1197
     36 H4         -0.9352   -0.6026   -0.0348 H         1 <0>         0.1290
     37 H5          0.3889   -2.6912   -0.0226 H         1 <0>         0.1292
     38 H6          2.5506   -3.8063   -0.0172 H         1 <0>         0.1279
     39 H7          4.6383   -2.5166   -0.0261 H         1 <0>         0.1237
     40 H8          4.6489   -0.0093    2.8970 H         1 <0>         0.1366
     41 H9          6.2803    0.9862    4.4211 H         1 <0>         0.1413
     42 H10         8.5855    2.3901    1.1041 H         1 <0>         0.1446
     43 H11         7.5727    1.7388   -2.3221 H         1 <0>         0.1541
     44 H12         8.8803    2.7517   -4.1367 H         1 <0>         0.1446
     45 H13         4.7196    0.3057   -5.1882 H         1 <0>         0.1487
     46 H14         6.2863    1.8450   -9.2292 H         1 <0>         0.1268
     47 H15         6.0919    3.1921   -8.0776 H         1 <0>         0.0806
     48 H16         8.4388    1.2294   -8.1401 H         1 <0>         0.0824
     49 H17         8.4822    2.9159   -8.7169 H         1 <0>         0.1273
     50 H18         9.1488    1.7008    3.9562 H         1 <0>         0.3987
@<TRIPOS>BOND
     1    1    6 ar
     2    1    2 ar
     3    1   33 1
     4    2    3 ar
     5    2   34 1
     6    3    4 ar
     7    3   35 1
     8    4   10 ar
     9    4    5 ar
    10    5    6 ar
    11    5    7 ar
    12    6   36 1
    13    7    8 ar
    14    7   37 1
    15    8    9 ar
    16    8   38 1
    17    9   10 ar
    18    9   39 1
    19   10   11 1
    20   11   19 2
    21   11   12 1
    22   12   17 ar
    23   12   13 ar
    24   13   14 ar
    25   13   40 1
    26   14   15 ar
    27   14   41 1
    28   15   16 ar
    29   15   32 1
    30   16   17 ar
    31   16   42 1
    32   17   18 1
    33   18   19 1
    34   19   20 1
    35   20   21 2
    36   20   22 1
    37   22   27 ar
    38   22   23 ar
    39   23   24 ar
    40   23   43 1
    41   24   25 ar
    42   24   44 1
    43   25   31 1
    44   25   26 ar
    45   26   27 ar
    46   26   28 1
    47   27   45 1
    48   28   29 1
    49   29   30 1
    50   29   46 1
    51   29   47 1
    52   30   31 1
    53   30   48 1
    54   30   49 1
    55   32   50 1
