@<TRIPOS>MOLECULE
CHEMBL83060
   61    65     0     0     0
SMALL
USER_CHARGES

@<TRIPOS>ATOM
      1 C1          1.0217    0.4858    0.9583 C.ar      1 <0>        -0.1644
      2 C2          2.3067    0.9963    0.8523 C.ar      1 <0>        -0.0610
      3 C3          2.4733    2.2524    0.2900 C.ar      1 <0>        -0.1323
      4 C4          1.3609    2.9494   -0.1432 C.ar      1 <0>         0.1169
      5 N1          0.1535    2.4328   -0.0260 N.ar      1 <0>        -0.4802
      6 C5         -0.0425    1.2408    0.5033 C.ar      1 <0>         0.1045
      7 C6          3.8496    2.8507    0.1532 C.3       1 <0>        -0.0624
      8 H1          3.7721    3.9190   -0.0491 H         1 <0>         0.1415
      9 C7          4.6134    2.1550   -0.9859 C.3       1 <0>         0.1501
     10 H2          5.6462    2.5032   -0.9982 H         1 <0>         0.0983
     11 O1          4.5880    0.7520   -0.7718 O.3       1 <0>        -0.3062
     12 C8          5.0995    0.1879    0.3475 C.ar      1 <0>         0.1184
     13 C9          5.4915   -1.1468    0.2754 C.ar      1 <0>        -0.1132
     14 C10         6.0062   -1.7894    1.3824 C.ar      1 <0>        -0.1059
     15 C11         6.1391   -1.1109    2.5850 C.ar      1 <0>         0.1001
     16 C12         5.7584    0.2186    2.6671 C.ar      1 <0>        -0.0898
     17 C13         5.2468    0.8679    1.5512 C.ar      1 <0>        -0.1491
     18 S1          4.8014    2.5751    1.6804 S.3       1 <0>        -0.0800
     19 O2          6.6399   -1.7473    3.6773 O.3       1 <0>        -0.4913
     20 C14         3.9570    2.4775   -2.3035 C.ar      1 <0>        -0.1056
     21 C15         2.8177    1.7971   -2.6917 C.ar      1 <0>        -0.0376
     22 C16         2.2143    2.0906   -3.8993 C.ar      1 <0>        -0.1396
     23 C17         2.7523    3.0691   -4.7225 C.ar      1 <0>         0.1260
     24 C18         3.8953    3.7507   -4.3305 C.ar      1 <0>        -0.2021
     25 C19         4.4919    3.4571   -3.1195 C.ar      1 <0>        -0.0577
     26 O3          2.1608    3.3593   -5.9111 O.3       1 <0>        -0.3266
     27 C20         2.7695    4.3782   -6.7070 C.3       1 <0>         0.0248
     28 C21         1.9691    4.5634   -7.9977 C.3       1 <0>        -0.0010
     29 N2          0.6214    5.0492   -7.6726 N.4       1 <0>        -0.3844
     30 C22        -0.1940    5.0787   -8.8928 C.3       1 <0>        -0.0070
     31 C23        -1.6218    5.5065   -8.5465 C.3       1 <0>        -0.1469
     32 C24        -1.5920    6.9021   -7.9166 C.3       1 <0>        -0.1389
     33 C25        -0.6793    6.8771   -6.6872 C.3       1 <0>        -0.1456
     34 C26         0.7135    6.3985   -7.1024 C.3       1 <0>        -0.0130
     35 H3          0.8551   -0.4913    1.3871 H         1 <0>         0.1390
     36 H4          3.1574    0.4289    1.1998 H         1 <0>         0.1381
     37 H5          1.4822    3.9286   -0.5823 H         1 <0>         0.1499
     38 H6         -1.0463    0.8502    0.5819 H         1 <0>         0.1596
     39 H7          5.3911   -1.6840   -0.6561 H         1 <0>         0.1416
     40 H8          6.3064   -2.8245    1.3125 H         1 <0>         0.1435
     41 H9          5.8594    0.7513    3.6011 H         1 <0>         0.1409
     42 H10         7.6010   -1.6838    3.7634 H         1 <0>         0.3952
     43 H11         2.3992    1.0354   -2.0505 H         1 <0>         0.1345
     44 H12         1.3247    1.5584   -4.2024 H         1 <0>         0.1349
     45 H13         4.3160    4.5128   -4.9696 H         1 <0>         0.1324
     46 H14         5.3792    3.9904   -2.8119 H         1 <0>         0.1358
     47 H15         2.7827    5.3150   -6.1500 H         1 <0>         0.0874
     48 H16         3.7909    4.0865   -6.9516 H         1 <0>         0.1102
     49 H17         2.4726    5.2891   -8.6365 H         1 <0>         0.1494
     50 H18         1.8954    3.6094   -8.5197 H         1 <0>         0.1428
     51 H19         0.2361    5.7883   -9.5996 H         1 <0>         0.1292
     52 H20        -0.2115    4.0856   -9.3417 H         1 <0>         0.1310
     53 H21        -2.2251    5.5296   -9.4540 H         1 <0>         0.1131
     54 H22        -2.0529    4.7974   -7.8399 H         1 <0>         0.0882
     55 H23        -1.2085    7.6208   -8.6408 H         1 <0>         0.0820
     56 H24        -2.6001    7.1880   -7.6164 H         1 <0>         0.0949
     57 H25        -0.6090    7.8799   -6.2657 H         1 <0>         0.1124
     58 H26        -1.0909    6.1964   -5.9420 H         1 <0>         0.0884
     59 H27         1.3660    6.3798   -6.2294 H         1 <0>         0.1271
     60 H28         1.1243    7.0800   -7.8473 H         1 <0>         0.1302
     61 H29         0.1947    4.4294   -7.0004 H         1 <0>         0.4296
@<TRIPOS>BOND
     1    1    6 ar
     2    1    2 ar
     3    1   35 1
     4    2    3 ar
     5    2   36 1
     6    3    4 ar
     7    3    7 1
     8    4    5 ar
     9    4   37 1
    10    5    6 ar
    11    6   38 1
    12    7    8 1
    13    7   18 1
    14    7    9 1
    15    9   10 1
    16    9   11 1
    17    9   20 1
    18   11   12 1
    19   12   17 ar
    20   12   13 ar
    21   13   14 ar
    22   13   39 1
    23   14   15 ar
    24   14   40 1
    25   15   16 ar
    26   15   19 1
    27   16   17 ar
    28   16   41 1
    29   17   18 1
    30   19   42 1
    31   20   25 ar
    32   20   21 ar
    33   21   22 ar
    34   21   43 1
    35   22   23 ar
    36   22   44 1
    37   23   24 ar
    38   23   26 1
    39   24   25 ar
    40   24   45 1
    41   25   46 1
    42   26   27 1
    43   27   28 1
    44   27   47 1
    45   27   48 1
    46   28   29 1
    47   28   49 1
    48   28   50 1
    49   29   34 1
    50   29   30 1
    51   29   61 1
    52   30   31 1
    53   30   51 1
    54   30   52 1
    55   31   32 1
    56   31   53 1
    57   31   54 1
    58   32   33 1
    59   32   55 1
    60   32   56 1
    61   33   34 1
    62   33   57 1
    63   33   58 1
    64   34   59 1
    65   34   60 1
