@<TRIPOS>MOLECULE
CHEMBL187314
   32    35     0     0     0
SMALL
USER_CHARGES

@<TRIPOS>ATOM
      1 C1         -0.0170    1.4029    0.0098 C.ar      1 <0>        -0.1049
      2 C2          1.1488    2.0981    0.0024 C.ar      1 <0>        -0.0839
      3 C3          2.3862    1.4299   -0.0135 C.ar      1 <0>        -0.0352
      4 C4          2.4379    0.0455   -0.0215 C.ar      1 <0>        -0.0308
      5 C5          1.2438   -0.6898   -0.0136 C.ar      1 <0>        -0.0696
      6 C6          0.0021   -0.0041    0.0020 C.ar      1 <0>        -0.0179
      7 C7         -1.1919   -0.7426    0.0090 C.ar      1 <0>        -0.1421
      8 C8         -1.1401   -2.1178    0.0007 C.ar      1 <0>         0.1246
      9 C9          0.0882   -2.7870   -0.0142 C.ar      1 <0>        -0.1409
     10 C10         1.2592   -2.0968   -0.0217 C.ar      1 <0>        -0.0751
     11 O1         -2.2948   -2.8335    0.0074 O.3       1 <0>        -0.4982
     12 C11         3.6403    2.2102   -0.0223 C.2       1 <0>         0.2956
     13 N1          4.8439    1.6961   -0.0427 N.2       1 <0>        -0.4665
     14 C12         5.7509    2.7072   -0.0456 C.ar      1 <0>         0.0180
     15 C13         7.1474    2.7491   -0.0636 C.ar      1 <0>        -0.0419
     16 C14         7.7929    3.9532   -0.0614 C.ar      1 <0>        -0.1395
     17 C15         7.0702    5.1424   -0.0408 C.ar      1 <0>         0.1370
     18 C16         5.6860    5.1201   -0.0223 C.ar      1 <0>        -0.1222
     19 C17         5.0184    3.9056   -0.0253 C.ar      1 <0>         0.0272
     20 O2          3.7131    3.5554   -0.0162 O.3       1 <0>        -0.2054
     21 O3          7.7270    6.3325   -0.0383 O.3       1 <0>        -0.4887
     22 H1         -0.9596    1.9299    0.0261 H         1 <0>         0.1386
     23 H2          1.1259    3.1778    0.0084 H         1 <0>         0.1350
     24 H3          3.3904   -0.4635   -0.0340 H         1 <0>         0.1481
     25 H4         -2.1450   -0.2348    0.0212 H         1 <0>         0.1383
     26 H5          0.1064   -3.8668   -0.0198 H         1 <0>         0.1349
     27 H6          2.1998   -2.6275   -0.0342 H         1 <0>         0.1383
     28 H7         -2.6374   -3.0357   -0.8740 H         1 <0>         0.3953
     29 H8          7.7158    1.8310   -0.0790 H         1 <0>         0.1439
     30 H9          8.8724    3.9824   -0.0753 H         1 <0>         0.1463
     31 H10         5.1289    6.0451   -0.0056 H         1 <0>         0.1438
     32 H11         7.9054    6.6850   -0.9209 H         1 <0>         0.3979
@<TRIPOS>BOND
     1    1    6 ar
     2    1    2 ar
     3    1   22 1
     4    2    3 ar
     5    2   23 1
     6    3    4 ar
     7    3   12 1
     8    4    5 ar
     9    4   24 1
    10    5   10 ar
    11    5    6 ar
    12    6    7 ar
    13    7    8 ar
    14    7   25 1
    15    8    9 ar
    16    8   11 1
    17    9   10 ar
    18    9   26 1
    19   10   27 1
    20   11   28 1
    21   12   20 1
    22   12   13 2
    23   13   14 1
    24   14   19 ar
    25   14   15 ar
    26   15   16 ar
    27   15   29 1
    28   16   17 ar
    29   16   30 1
    30   17   18 ar
    31   17   21 1
    32   18   19 ar
    33   18   31 1
    34   19   20 1
    35   21   32 1
