@<TRIPOS>MOLECULE
CHEMBL93326
   38    40     0     0     0
SMALL
USER_CHARGES

@<TRIPOS>ATOM
      1 C1          0.0561    1.2949   -0.3616 C.ar      1 <0>        -0.0895
      2 C2          1.2511    1.9880   -0.3610 C.ar      1 <0>        -0.1399
      3 C3          2.4207    1.3514    0.0283 C.ar      1 <0>         0.1110
      4 C4          2.3869    0.0199    0.4162 C.ar      1 <0>        -0.1389
      5 C5          1.1893   -0.6688    0.4139 C.ar      1 <0>        -0.0645
      6 C6          0.0251   -0.0321    0.0254 C.ar      1 <0>        -0.0774
      7 C7         -1.2800   -0.7856    0.0242 C.3       1 <0>         0.2357
      8 H1         -2.0930   -0.1026   -0.2218 H         1 <0>         0.1047
      9 C8         -1.5185   -1.3783    1.3905 C.ar      1 <0>        -0.1041
     10 C9         -1.3598   -0.5477    2.4923 C.ar      1 <0>        -0.0799
     11 C10        -1.5730   -1.0258    3.7676 C.ar      1 <0>        -0.1435
     12 C11        -1.9509   -2.3483    3.9510 C.ar      1 <0>         0.1165
     13 C12        -2.1049   -3.1762    2.8526 C.ar      1 <0>        -0.1452
     14 C13        -1.8837   -2.6941    1.5689 C.ar      1 <0>        -0.0504
     15 C14        -2.0439   -3.6600    0.4244 C.3       1 <0>        -0.0992
     16 C15        -2.2461   -2.9134   -0.8931 C.3       1 <0>         0.0944
     17 N1         -1.2237   -1.8575   -0.9754 N.am      1 <0>        -0.5871
     18 C16        -0.2744   -1.8747   -1.9319 C.2       1 <0>         0.4833
     19 O1          0.5986   -1.0328   -1.9351 O.2       1 <0>        -0.4435
     20 C17        -0.2976   -2.9401   -2.9975 C.3       1 <0>         0.4488
     21 F1          0.7798   -2.7508   -3.8697 F         1 <0>        -0.1501
     22 F2         -0.1971   -4.2006   -2.3990 F         1 <0>        -0.1678
     23 F3         -1.4969   -2.8579   -3.7131 F         1 <0>        -0.1664
     24 O2         -2.1692   -2.8285    5.2034 O.3       1 <0>        -0.4984
     25 O3          3.5976    2.0310    0.0293 O.3       1 <0>        -0.4998
     26 H2         -0.8553    1.7913   -0.6603 H         1 <0>         0.1242
     27 H3          1.2749    3.0245   -0.6638 H         1 <0>         0.1280
     28 H4          3.2960   -0.4780    0.7194 H         1 <0>         0.1254
     29 H5          1.1624   -1.7054    0.7157 H         1 <0>         0.1146
     30 H6         -1.0664    0.4817    2.3487 H         1 <0>         0.1307
     31 H7         -1.4462   -0.3744    4.6197 H         1 <0>         0.1329
     32 H8         -2.3995   -4.2055    2.9948 H         1 <0>         0.1319
     33 H9         -1.1508   -4.2806    0.3514 H         1 <0>         0.0892
     34 H10        -2.9081   -4.2974    0.6116 H         1 <0>         0.0986
     35 H11        -2.1320   -3.6034   -1.7292 H         1 <0>         0.0967
     36 H12        -3.2404   -2.4673   -0.9154 H         1 <0>         0.0953
     37 H13        -3.0820   -2.7327    5.5078 H         1 <0>         0.3938
     38 H14         3.7946    2.4751    0.8654 H         1 <0>         0.3896
@<TRIPOS>BOND
     1    1    6 ar
     2    1    2 ar
     3    1   26 1
     4    2    3 ar
     5    2   27 1
     6    3    4 ar
     7    3   25 1
     8    4    5 ar
     9    4   28 1
    10    5    6 ar
    11    5   29 1
    12    6    7 1
    13    7    8 1
    14    7   17 1
    15    7    9 1
    16    9   14 ar
    17    9   10 ar
    18   10   11 ar
    19   10   30 1
    20   11   12 ar
    21   11   31 1
    22   12   13 ar
    23   12   24 1
    24   13   14 ar
    25   13   32 1
    26   14   15 1
    27   15   16 1
    28   15   33 1
    29   15   34 1
    30   16   17 1
    31   16   35 1
    32   16   36 1
    33   17   18 am
    34   18   19 2
    35   18   20 1
    36   20   21 1
    37   20   22 1
    38   20   23 1
    39   24   37 1
    40   25   38 1
