@<TRIPOS>MOLECULE
CHEMBL379543
   48    52     0     0     0
SMALL
USER_CHARGES

@<TRIPOS>ATOM
      1 C1          0.5364    1.4827    0.6445 C.3       1 <0>        -0.1538
      2 C2          0.5633   -0.0468    0.6131 C.3       1 <0>        -0.1260
      3 C3          0.9486   -0.5213   -0.7895 C.3       1 <0>        -0.1212
      4 C4          0.9755   -2.0507   -0.8210 C.3       1 <0>        -0.0993
      5 C5          1.3609   -2.5253   -2.2236 C.3       1 <0>        -0.0365
      6 C6          2.7406   -2.0042   -2.6357 C.3       1 <0>        -0.1059
      7 C7          3.7910   -2.6298   -1.7120 C.3       1 <0>        -0.1687
      8 C8          3.7136   -4.1315   -1.7624 C.2       1 <0>         0.3948
      9 O1          4.7104   -4.7891   -1.5395 O.2       1 <0>        -0.4599
     10 C9          2.5031   -4.7877   -2.0646 C.2       1 <0>        -0.1685
     11 C10         1.4037   -4.0424   -2.3144 C.2       1 <0>         0.0301
     12 C11         0.0710   -4.4697   -2.7491 C.ar      1 <0>        -0.1234
     13 C12        -0.5850   -5.7195   -2.6097 C.ar      1 <0>        -0.0461
     14 C13        -1.8077   -5.9477   -3.1308 C.ar      1 <0>        -0.1084
     15 C14        -2.4779   -4.9240   -3.8402 C.ar      1 <0>         0.1208
     16 C15        -1.8281   -3.6094   -3.9688 C.ar      1 <0>        -0.1997
     17 C16        -0.5646   -3.4109   -3.3863 C.ar      1 <0>         0.0162
     18 C17         0.2854   -2.1625   -3.2626 C.3       1 <0>        -0.0795
     19 C18        -2.6976   -2.8144   -4.6996 C.2       1 <0>         0.0983
     20 N1         -3.7745   -3.5516   -4.9968 N.pl3     1 <0>        -0.4213
     21 N2         -3.6340   -4.8397   -4.4688 N.2       1 <0>        -0.3033
     22 H1         -4.5401   -3.2388   -5.5036 H         1 <0>         0.4469
     23 C19         2.4362   -6.2926   -2.1083 C.3       1 <0>        -0.1175
     24 C20         3.5615   -7.0700   -1.4225 C.3       1 <0>        -0.1782
     25 C21         3.4852   -7.0222   -2.9498 C.3       1 <0>        -0.1664
     26 H2          1.5231    1.8688    0.3887 H         1 <0>         0.0541
     27 H3         -0.1949    1.8481   -0.0764 H         1 <0>         0.0531
     28 H4          0.2618    1.8207    1.6438 H         1 <0>         0.0537
     29 H5          1.2946   -0.4122    1.3340 H         1 <0>         0.0619
     30 H6         -0.4234   -0.4329    0.8689 H         1 <0>         0.0611
     31 H7          0.2173   -0.1559   -1.5104 H         1 <0>         0.0655
     32 H8          1.9353   -0.1352   -1.0454 H         1 <0>         0.0682
     33 H9          1.7069   -2.4162   -0.1001 H         1 <0>         0.0707
     34 H10        -0.0112   -2.4368   -0.5651 H         1 <0>         0.0714
     35 H11         2.9457   -2.2870   -3.6682 H         1 <0>         0.0744
     36 H12         2.7666   -0.9189   -2.5379 H         1 <0>         0.0856
     37 H13         4.7839   -2.3103   -2.0286 H         1 <0>         0.0963
     38 H14         3.6155   -2.2950   -0.6896 H         1 <0>         0.1024
     39 H15        -0.0899   -6.5131   -2.0698 H         1 <0>         0.1325
     40 H16        -2.2754   -6.9132   -3.0067 H         1 <0>         0.1343
     41 H17        -0.3174   -1.3259   -2.9093 H         1 <0>         0.0927
     42 H18         0.7478   -1.9213   -4.2197 H         1 <0>         0.0936
     43 H19        -2.5353   -1.7838   -4.9788 H         1 <0>         0.1916
     44 H20         1.4341   -6.7198   -2.0720 H         1 <0>         0.1156
     45 H21         4.3502   -6.4929   -0.9396 H         1 <0>         0.1254
     46 H22         3.2998   -8.0089   -0.9346 H         1 <0>         0.0879
     47 H23         3.1733   -7.9297   -3.4668 H         1 <0>         0.0929
     48 H24         4.2237   -6.4137   -3.4718 H         1 <0>         0.0918
@<TRIPOS>BOND
     1    1    2 1
     2    1   26 1
     3    1   27 1
     4    1   28 1
     5    2    3 1
     6    2   29 1
     7    2   30 1
     8    3    4 1
     9    3   31 1
    10    3   32 1
    11    4    5 1
    12    4   33 1
    13    4   34 1
    14    5   11 1
    15    5   18 1
    16    5    6 1
    17    6    7 1
    18    6   35 1
    19    6   36 1
    20    7    8 1
    21    7   37 1
    22    7   38 1
    23    8    9 2
    24    8   10 1
    25   10   11 2
    26   10   23 1
    27   11   12 1
    28   12   17 ar
    29   12   13 ar
    30   13   14 ar
    31   13   39 1
    32   14   15 ar
    33   14   40 1
    34   15   16 ar
    35   15   21 2
    36   16   17 ar
    37   16   19 2
    38   17   18 1
    39   18   41 1
    40   18   42 1
    41   19   43 1
    42   19   20 1
    43   20   22 1
    44   20   21 1
    45   23   25 1
    46   23   24 1
    47   23   44 1
    48   24   25 1
    49   24   45 1
    50   24   46 1
    51   25   47 1
    52   25   48 1
