@<TRIPOS>MOLECULE
CHEMBL1086644
   71    76     0     0     0
SMALL
USER_CHARGES

@<TRIPOS>ATOM
      1 C1          0.0438    1.0466    0.0482 C.ar      1 <0>        -0.0567
      2 C2          1.1882    1.8192    0.0061 C.ar      1 <0>        -0.1377
      3 C3          2.4352    1.2115    0.0270 C.ar      1 <0>         0.1177
      4 C4          2.5294   -0.1712    0.0902 C.ar      1 <0>        -0.1979
      5 C5          1.3820   -0.9394    0.1320 C.ar      1 <0>        -0.0653
      6 C6          0.1404   -0.3313    0.1110 C.ar      1 <0>        -0.1252
      7 C7         -1.1097   -1.1716    0.1572 C.3       1 <0>         0.1860
      8 C8         -1.4101   -1.6924   -1.2286 C.2       1 <0>        -0.1126
      9 C9         -0.8912   -2.8716   -1.6117 C.2       1 <0>        -0.0275
     10 C10        -1.1850   -3.4029   -2.9933 C.3       1 <0>        -0.0870
     11 C11        -0.0025   -3.1044   -3.9176 C.3       1 <0>        -0.1452
     12 C12        -0.2251   -1.7781   -4.6395 C.3       1 <0>         0.0622
     13 O1         -0.4331   -0.7261   -3.6968 O.3       1 <0>        -0.3243
     14 C13        -1.7262   -0.4404   -3.3691 C.ar      1 <0>         0.1309
     15 C14        -2.2302   -0.8908   -2.1419 C.ar      1 <0>        -0.0680
     16 C15        -3.5467   -0.5691   -1.7880 C.ar      1 <0>        -0.0776
     17 C16        -4.3325    0.1648   -2.6489 C.ar      1 <0>        -0.1482
     18 C17        -3.8297    0.5909   -3.8718 C.ar      1 <0>         0.1317
     19 C18        -2.5227    0.2863   -4.2304 C.ar      1 <0>        -0.1716
     20 O2         -4.6169    1.3053   -4.7179 O.3       1 <0>        -0.4947
     21 C19        -0.0742   -3.6396   -0.6625 C.ar      1 <0>        -0.1293
     22 C20         0.7159   -4.7104   -1.0738 C.ar      1 <0>        -0.0527
     23 C21         1.4778   -5.3916   -0.1468 C.ar      1 <0>        -0.1708
     24 C22         1.4594   -5.0123    1.1899 C.ar      1 <0>         0.1469
     25 C23         0.6698   -3.9494    1.6088 C.ar      1 <0>        -0.1751
     26 C24        -0.1032   -3.2657    0.6919 C.ar      1 <0>         0.1484
     27 O3         -0.9176   -2.2486    1.0723 O.3       1 <0>        -0.2953
     28 O4          2.2192   -5.6854    2.0930 O.3       1 <0>        -0.4911
     29 O5          3.5625    1.9693   -0.0147 O.3       1 <0>        -0.3278
     30 C25         4.8117    1.2758    0.0102 C.3       1 <0>         0.0258
     31 C26         5.9580    2.2878   -0.0434 C.3       1 <0>        -0.0007
     32 N1          5.9254    3.1288    1.1606 N.4       1 <0>        -0.3841
     33 C27         6.9247    4.1968    1.0368 C.3       1 <0>        -0.0070
     34 C28         6.8396    5.1234    2.2516 C.3       1 <0>        -0.1467
     35 C29         7.1096    4.3145    3.5236 C.3       1 <0>        -0.1389
     36 C30         6.1082    3.1588    3.6040 C.3       1 <0>        -0.1453
     37 C31         6.2203    2.3050    2.3391 C.3       1 <0>        -0.0131
     38 H1         -0.9271    1.5194    0.0364 H         1 <0>         0.1358
     39 H2          1.1123    2.8954   -0.0434 H         1 <0>         0.1344
     40 H3          3.4990   -0.6467    0.1062 H         1 <0>         0.1261
     41 H4          1.4548   -2.0158    0.1812 H         1 <0>         0.1328
     42 H5         -1.9429   -0.5565    0.4970 H         1 <0>         0.1314
     43 H6         -1.3431   -4.4802   -2.9422 H         1 <0>         0.0821
     44 H7         -2.0819   -2.9224   -3.3841 H         1 <0>         0.0782
     45 H8          0.9120   -3.0458   -3.3274 H         1 <0>         0.0758
     46 H9          0.0935   -3.9042   -4.6519 H         1 <0>         0.0865
     47 H10         0.6488   -1.5484   -5.2490 H         1 <0>         0.0962
     48 H11        -1.0993   -1.8615   -5.2851 H         1 <0>         0.0618
     49 H12        -3.9461   -0.8971   -0.8396 H         1 <0>         0.1361
     50 H13        -5.3466    0.4110   -2.3710 H         1 <0>         0.1370
     51 H14        -2.1311    0.6170   -5.1810 H         1 <0>         0.1374
     52 H15        -4.5676    2.2622   -4.5874 H         1 <0>         0.3963
     53 H16         0.7319   -5.0061   -2.1125 H         1 <0>         0.1369
     54 H17         2.0908   -6.2233   -0.4614 H         1 <0>         0.1370
     55 H18         0.6602   -3.6589    2.6489 H         1 <0>         0.1416
     56 H19         3.1089   -5.3237    2.2057 H         1 <0>         0.3939
     57 H20         4.8850    0.6921    0.9278 H         1 <0>         0.0856
     58 H21         4.8746    0.6096   -0.8502 H         1 <0>         0.1086
     59 H22         6.9090    1.7574   -0.0905 H         1 <0>         0.1487
     60 H23         5.8477    2.9152   -0.9279 H         1 <0>         0.1426
     61 H24         7.9209    3.7574    0.9846 H         1 <0>         0.1291
     62 H25         6.7332    4.7695    0.1294 H         1 <0>         0.1310
     63 H26         7.5835    5.9146    2.1586 H         1 <0>         0.1131
     64 H27         5.8439    5.5635    2.3046 H         1 <0>         0.0880
     65 H28         8.1239    3.9165    3.4940 H         1 <0>         0.0820
     66 H29         6.9946    4.9579    4.3959 H         1 <0>         0.0948
     67 H30         6.3292    2.5457    4.4777 H         1 <0>         0.1123
     68 H31         5.0972    3.5581    3.6851 H         1 <0>         0.0880
     69 H32         5.5088    1.4810    2.3932 H         1 <0>         0.1270
     70 H33         7.2315    1.9059    2.2591 H         1 <0>         0.1301
     71 H34         5.0086    3.5385    1.2588 H         1 <0>         0.4295
@<TRIPOS>BOND
     1    1    6 ar
     2    1    2 ar
     3    1   38 1
     4    2    3 ar
     5    2   39 1
     6    3    4 ar
     7    3   29 1
     8    4    5 ar
     9    4   40 1
    10    5    6 ar
    11    5   41 1
    12    6    7 1
    13    7   27 1
    14    7    8 1
    15    7   42 1
    16    8   15 1
    17    8    9 2
    18    9   10 1
    19    9   21 1
    20   10   11 1
    21   10   43 1
    22   10   44 1
    23   11   12 1
    24   11   45 1
    25   11   46 1
    26   12   13 1
    27   12   47 1
    28   12   48 1
    29   13   14 1
    30   14   19 ar
    31   14   15 ar
    32   15   16 ar
    33   16   17 ar
    34   16   49 1
    35   17   18 ar
    36   17   50 1
    37   18   19 ar
    38   18   20 1
    39   19   51 1
    40   20   52 1
    41   21   26 ar
    42   21   22 ar
    43   22   23 ar
    44   22   53 1
    45   23   24 ar
    46   23   54 1
    47   24   25 ar
    48   24   28 1
    49   25   26 ar
    50   25   55 1
    51   26   27 1
    52   28   56 1
    53   29   30 1
    54   30   31 1
    55   30   57 1
    56   30   58 1
    57   31   32 1
    58   31   59 1
    59   31   60 1
    60   32   37 1
    61   32   33 1
    62   32   71 1
    63   33   34 1
    64   33   61 1
    65   33   62 1
    66   34   35 1
    67   34   63 1
    68   34   64 1
    69   35   36 1
    70   35   65 1
    71   35   66 1
    72   36   37 1
    73   36   67 1
    74   36   68 1
    75   37   69 1
    76   37   70 1
