@<TRIPOS>MOLECULE
CHEMBL346455
   63    66     0     0     0
SMALL
USER_CHARGES

@<TRIPOS>ATOM
      1 C1         -0.0167    1.3784    0.0096 C.ar      1 <0>        -0.0947
      2 C2          1.1695    2.0865    0.0021 C.ar      1 <0>        -0.1429
      3 C3          2.3802    1.4093   -0.0131 C.ar      1 <0>         0.1113
      4 C4          2.3963    0.0221   -0.0206 C.ar      1 <0>        -0.1426
      5 C5          1.2074   -0.6814   -0.0130 C.ar      1 <0>        -0.0944
      6 C6          0.0021   -0.0041    0.0020 C.ar      1 <0>        -0.0984
      7 C7         -1.2934   -0.7740    0.0107 C.3       1 <0>        -0.0902
      8 C8         -1.7461   -1.0268   -1.4288 C.3       1 <0>         0.1376
      9 N1         -3.0054   -1.7753   -1.4203 N.pl3     1 <0>        -0.6783
     10 C9         -3.6104   -2.1214   -2.6115 C.ar      1 <0>         0.6443
     11 N2         -4.7562   -2.7960   -2.6037 N.ar      1 <0>        -0.6589
     12 C10        -5.3393   -3.1296   -3.7509 C.ar      1 <0>         0.6398
     13 N3         -4.7770   -2.7888   -4.9062 N.ar      1 <0>        -0.6200
     14 C11        -3.6310   -2.1141   -4.9143 C.ar      1 <0>         0.4097
     15 N4         -3.0505   -1.7757   -3.7662 N.ar      1 <0>        -0.6276
     16 S1         -2.8850   -1.6627   -6.4454 S.3       1 <0>         0.0334
     17 C12        -1.3780   -0.7795   -5.9559 C.3       1 <0>        -0.1081
     18 C13        -0.6237   -0.3255   -7.2072 C.3       1 <0>        -0.1019
     19 C14         0.6473    0.4195   -6.7943 C.3       1 <0>        -0.0722
     20 C15         1.3903    0.8667   -8.0268 C.ar      1 <0>        -0.0823
     21 C16         2.3343    0.0376   -8.6033 C.ar      1 <0>        -0.1028
     22 C17         3.0160    0.4472   -9.7337 C.ar      1 <0>        -0.1075
     23 C18         2.7535    1.6872  -10.2882 C.ar      1 <0>        -0.0364
     24 C19         1.8086    2.5166   -9.7107 C.ar      1 <0>        -0.1077
     25 C20         1.1235    2.1035   -8.5836 C.ar      1 <0>        -0.1031
     26 Cl1         3.6098    2.2026  -11.7076 Cl        1 <0>        -0.0662
     27 N5         -6.5284   -3.8302   -3.7424 N.pl3     1 <0>        -0.5960
     28 C21        -7.1717   -4.2130   -2.4761 C.3       1 <0>         0.1043
     29 C22        -8.6400   -3.7776   -2.5261 C.3       1 <0>        -0.0213
     30 N6         -9.2760   -4.3410   -3.7236 N.4       1 <0>        -0.5058
     31 C23        -8.6561   -3.7794   -4.9304 C.3       1 <0>        -0.0212
     32 C24        -7.1915   -4.2100   -4.9994 C.3       1 <0>         0.1028
     33 O1          3.5484    2.1036   -0.0209 O.3       1 <0>        -0.4993
     34 H1         -0.9594    1.9052    0.0259 H         1 <0>         0.1264
     35 H2          1.1543    3.1664    0.0076 H         1 <0>         0.1311
     36 H3          3.3375   -0.5074   -0.0328 H         1 <0>         0.1313
     37 H4          1.2194   -1.7613   -0.0189 H         1 <0>         0.1268
     38 H5         -1.1460   -1.7274    0.5180 H         1 <0>         0.0823
     39 H6         -2.0553   -0.1973    0.5352 H         1 <0>         0.0819
     40 H7         -1.8934   -0.0734   -1.9361 H         1 <0>         0.0754
     41 H8         -0.9842   -1.6035   -1.9533 H         1 <0>         0.0756
     42 H9         -3.4140   -2.0276   -0.5775 H         1 <0>         0.4177
     43 H10        -1.6455    0.0911   -5.3570 H         1 <0>         0.0987
     44 H11        -0.7425   -1.4428   -5.3692 H         1 <0>         0.0989
     45 H12        -0.3563   -1.1960   -7.8061 H         1 <0>         0.0788
     46 H13        -1.2593    0.3378   -7.7939 H         1 <0>         0.0785
     47 H14         0.3798    1.2900   -6.1953 H         1 <0>         0.0797
     48 H15         1.2828   -0.2438   -6.2076 H         1 <0>         0.0799
     49 H16         2.5394   -0.9303   -8.1702 H         1 <0>         0.1319
     50 H17         3.7538   -0.2005  -10.1839 H         1 <0>         0.1347
     51 H18         1.6035    3.4848  -10.1429 H         1 <0>         0.1346
     52 H19         0.3824    2.7489   -8.1355 H         1 <0>         0.1316
     53 H20        -7.1144   -5.2940   -2.3482 H         1 <0>         0.0952
     54 H21        -6.6704   -3.7159   -1.6456 H         1 <0>         0.1408
     55 H22        -9.1565   -4.1380   -1.6365 H         1 <0>         0.1481
     56 H23        -8.6954   -2.6896   -2.5629 H         1 <0>         0.1341
     57 H24        -9.1616   -5.3435   -3.7236 H         1 <0>         0.4293
     58 H25        -9.1845   -4.1412   -5.8124 H         1 <0>         0.1497
     59 H26        -8.7110   -2.6914   -4.8945 H         1 <0>         0.1345
     60 H27        -6.7033   -3.7110   -5.8365 H         1 <0>         0.1439
     61 H28        -7.1363   -5.2907   -5.1307 H         1 <0>         0.0956
     62 H29         3.8951    2.3001    0.8601 H         1 <0>         0.3949
     63 H30       -10.2599   -4.1173   -3.7172 H         1 <0>         0.4345
@<TRIPOS>BOND
     1    1    6 ar
     2    1    2 ar
     3    1   34 1
     4    2    3 ar
     5    2   35 1
     6    3    4 ar
     7    3   33 1
     8    4    5 ar
     9    4   36 1
    10    5    6 ar
    11    5   37 1
    12    6    7 1
    13    7    8 1
    14    7   38 1
    15    7   39 1
    16    8    9 1
    17    8   40 1
    18    8   41 1
    19    9   10 1
    20    9   42 1
    21   10   15 ar
    22   10   11 ar
    23   11   12 ar
    24   12   13 ar
    25   12   27 1
    26   13   14 ar
    27   14   15 ar
    28   14   16 1
    29   16   17 1
    30   17   18 1
    31   17   43 1
    32   17   44 1
    33   18   19 1
    34   18   45 1
    35   18   46 1
    36   19   20 1
    37   19   47 1
    38   19   48 1
    39   20   25 ar
    40   20   21 ar
    41   21   22 ar
    42   21   49 1
    43   22   23 ar
    44   22   50 1
    45   23   24 ar
    46   23   26 1
    47   24   25 ar
    48   24   51 1
    49   25   52 1
    50   27   32 1
    51   27   28 1
    52   28   29 1
    53   28   53 1
    54   28   54 1
    55   29   30 1
    56   29   55 1
    57   29   56 1
    58   30   31 1
    59   30   57 1
    60   30   63 1
    61   31   32 1
    62   31   58 1
    63   31   59 1
    64   32   60 1
    65   32   61 1
    66   33   62 1
