@<TRIPOS>MOLECULE
CHEMBL35151
   56    60     0     0     0
SMALL
USER_CHARGES

@<TRIPOS>ATOM
      1 C1          0.4919    0.7939   -0.5412 C.3       1 <0>        -0.1244
      2 C2          0.4482   -0.7104   -0.2590 C.3       1 <0>        -0.0407
      3 C3         -0.9628   -1.2840   -0.4076 C.3       1 <0>        -0.1094
      4 C4         -1.8727   -0.8017    0.7147 C.3       1 <0>        -0.1098
      5 C5         -1.3288   -1.2435    2.0654 C.3       1 <0>        -0.0399
      6 C6         -1.4178   -2.7282    2.2600 C.ar      1 <0>        -0.0539
      7 C7         -2.4386   -3.4303    1.6361 C.ar      1 <0>        -0.1016
      8 C8         -2.5614   -4.7943    1.8041 C.ar      1 <0>        -0.1369
      9 C9         -1.6578   -5.4704    2.6106 C.ar      1 <0>         0.1073
     10 C10        -0.6373   -4.7715    3.2303 C.ar      1 <0>        -0.1414
     11 C11        -0.5079   -3.3990    3.0503 C.ar      1 <0>        -0.0847
     12 C12         0.6417   -2.7186    3.7380 C.3       1 <0>         0.1696
     13 C13         0.6151   -1.2040    3.6182 C.3       1 <0>        -0.0619
     14 H1         -0.0449   -0.8045    4.4065 H         1 <0>         0.1078
     15 C14         0.0903   -0.7374    2.2628 C.3       1 <0>        -0.0629
     16 C15         1.0244   -1.0517    1.1282 C.3       1 <0>        -0.0692
     17 C16         1.4250   -2.5284    1.0043 C.3       1 <0>        -0.1231
     18 C17         2.0177   -2.6219   -0.4238 C.3       1 <0>        -0.1586
     19 C18         1.3531   -1.5003   -1.2402 C.3       1 <0>         0.1051
     20 H2          0.7481   -1.9295   -2.0411 H         1 <0>         0.0554
     21 O1          2.3480   -0.6371   -1.7953 O.3       1 <0>        -0.5602
     22 S1          2.2856   -0.5422    3.8939 S.3       1 <0>        -0.0814
     23 C19         2.0317    1.1912    4.0823 C.ar      1 <0>        -0.0659
     24 C20         0.7414    1.7027    4.1484 C.ar      1 <0>        -0.1316
     25 C21         0.5457    3.0616    4.2965 C.ar      1 <0>        -0.0680
     26 C22         1.6329    3.9137    4.3791 C.ar      1 <0>        -0.0975
     27 C23         2.9191    3.4074    4.3136 C.ar      1 <0>        -0.0687
     28 C24         3.1215    2.0489    4.1708 C.ar      1 <0>        -0.0952
     29 Br1         1.3604    5.7740    4.5814 Br        1 <0>        -0.0467
     30 O2          0.5971   -3.0632    5.1333 O.3       1 <0>        -0.5571
     31 O3         -1.7740   -6.8127    2.7908 O.3       1 <0>        -0.4977
     32 H3          1.5247    1.1403   -0.5060 H         1 <0>         0.0663
     33 H4          0.0761    0.9904   -1.5294 H         1 <0>         0.0546
     34 H5         -0.0942    1.3218    0.2111 H         1 <0>         0.0500
     35 H6         -1.3778   -0.9662   -1.3674 H         1 <0>         0.0648
     36 H7         -0.9134   -2.3737   -0.3918 H         1 <0>         0.0668
     37 H8         -1.9380    0.2898    0.6920 H         1 <0>         0.0714
     38 H9         -2.8781   -1.2003    0.5690 H         1 <0>         0.0723
     39 H10        -1.9548   -0.7745    2.8410 H         1 <0>         0.0818
     40 H11        -3.1516   -2.9141    1.0111 H         1 <0>         0.1318
     41 H12        -3.3562   -5.3319    1.3092 H         1 <0>         0.1312
     42 H13         0.0656   -5.2960    3.8604 H         1 <0>         0.1265
     43 H14         1.5814   -3.1042    3.3382 H         1 <0>         0.0806
     44 H15         0.0192    0.3727    2.3157 H         1 <0>         0.0829
     45 H16         1.9400   -0.4588    1.2592 H         1 <0>         0.0865
     46 H17         2.1928   -2.7861    1.7350 H         1 <0>         0.0665
     47 H18         0.5629   -3.1853    1.0923 H         1 <0>         0.0776
     48 H19         3.0962   -2.4734   -0.3892 H         1 <0>         0.0743
     49 H20         1.7856   -3.5935   -0.8598 H         1 <0>         0.0651
     50 H21         2.9453   -1.0743   -2.4175 H         1 <0>         0.3747
     51 H22        -0.1076    1.0383    4.0836 H         1 <0>         0.1323
     52 H23        -0.4568    3.4598    4.3476 H         1 <0>         0.1359
     53 H24         3.7655    4.0750    4.3784 H         1 <0>         0.1387
     54 H25         4.1255    1.6539    4.1243 H         1 <0>         0.1373
     55 H26         0.6669   -4.0120    5.3065 H         1 <0>         0.3815
     56 H27        -1.2869   -7.3402    2.1430 H         1 <0>         0.3917
@<TRIPOS>BOND
     1    1    2 1
     2    1   32 1
     3    1   33 1
     4    1   34 1
     5    2   16 1
     6    2   19 1
     7    2    3 1
     8    3    4 1
     9    3   35 1
    10    3   36 1
    11    4    5 1
    12    4   37 1
    13    4   38 1
    14    5   15 1
    15    5    6 1
    16    5   39 1
    17    6   11 ar
    18    6    7 ar
    19    7    8 ar
    20    7   40 1
    21    8    9 ar
    22    8   41 1
    23    9   10 ar
    24    9   31 1
    25   10   11 ar
    26   10   42 1
    27   11   12 1
    28   12   13 1
    29   12   30 1
    30   12   43 1
    31   13   14 1
    32   13   15 1
    33   13   22 1
    34   15   16 1
    35   15   44 1
    36   16   17 1
    37   16   45 1
    38   17   18 1
    39   17   46 1
    40   17   47 1
    41   18   19 1
    42   18   48 1
    43   18   49 1
    44   19   20 1
    45   19   21 1
    46   21   50 1
    47   22   23 1
    48   23   28 ar
    49   23   24 ar
    50   24   25 ar
    51   24   51 1
    52   25   26 ar
    53   25   52 1
    54   26   27 ar
    55   26   29 1
    56   27   28 ar
    57   27   53 1
    58   28   54 1
    59   30   55 1
    60   31   56 1
