@<TRIPOS>MOLECULE
CHEMBL389394
   38    41     0     0     0
SMALL
USER_CHARGES

@<TRIPOS>ATOM
      1 C1          0.0655    1.4937    0.5959 C.ar      1 <0>        -0.1721
      2 C2          1.2272    2.1663    0.3497 C.ar      1 <0>        -0.0232
      3 C3          2.4110    1.4558    0.1376 C.ar      1 <0>        -0.1633
      4 C4          2.4019    0.0492    0.1785 C.ar      1 <0>         0.1450
      5 C5          1.2087   -0.6210    0.4303 C.ar      1 <0>        -0.1683
      6 C6          0.0490    0.1008    0.6378 C.ar      1 <0>         0.1618
      7 O1         -1.1168   -0.5526    0.8846 O.3       1 <0>        -0.4939
      8 N1          3.6897   -0.3658   -0.0622 N.pl3     1 <0>        -0.3608
      9 N2          4.5064    0.7531   -0.2532 N.2       1 <0>        -0.1933
     10 C7          3.7961    1.8503   -0.1446 C.2       1 <0>         0.1489
     11 C8          4.3004    3.2362   -0.2818 C.ar      1 <0>        -0.0579
     12 C9          3.9503    4.2041    0.6587 C.ar      1 <0>        -0.0592
     13 C10         4.4212    5.4935    0.5283 C.ar      1 <0>        -0.1524
     14 C11         5.2440    5.8321   -0.5385 C.ar      1 <0>         0.1382
     15 C12         5.5968    4.8755   -1.4788 C.ar      1 <0>        -0.1743
     16 C13         5.1343    3.5768   -1.3527 C.ar      1 <0>         0.1579
     17 O2          5.4841    2.6371   -2.2693 O.3       1 <0>        -0.4829
     18 O3          5.7043    7.1046   -0.6614 O.3       1 <0>        -0.4964
     19 C14         4.1164   -1.6979   -0.1083 C.ar      1 <0>         0.1846
     20 C15         3.4089   -2.6298   -0.8565 C.ar      1 <0>        -0.1088
     21 C16         3.8331   -3.9445   -0.8999 C.ar      1 <0>        -0.0150
     22 C17         4.9614   -4.3328   -0.1983 C.ar      1 <0>        -0.0967
     23 C18         5.6676   -3.4077    0.5478 C.ar      1 <0>        -0.0809
     24 C19         5.2526   -2.0899    0.5900 C.ar      1 <0>        -0.0314
     25 Cl1         6.1448   -0.9272    1.5205 Cl        1 <0>        -0.0309
     26 Cl2         2.9494   -5.1102   -1.8348 Cl        1 <0>        -0.0453
     27 H1         -0.8475    2.0455    0.7640 H         1 <0>         0.1390
     28 H2          1.2312    3.2458    0.3186 H         1 <0>         0.1371
     29 H3          1.1893   -1.7003    0.4638 H         1 <0>         0.1347
     30 H4         -1.6242   -0.7657    0.0895 H         1 <0>         0.3974
     31 H5          3.3103    3.9441    1.4888 H         1 <0>         0.1379
     32 H6          4.1494    6.2423    1.2575 H         1 <0>         0.1394
     33 H7          6.2361    5.1429   -2.3072 H         1 <0>         0.1412
     34 H8          4.8773    2.5744   -3.0195 H         1 <0>         0.3925
     35 H9          6.5480    7.2624   -0.2159 H         1 <0>         0.3972
     36 H10         2.5281   -2.3276   -1.4035 H         1 <0>         0.1481
     37 H11         5.2905   -5.3609   -0.2336 H         1 <0>         0.1519
     38 H12         6.5471   -3.7140    1.0946 H         1 <0>         0.1544
@<TRIPOS>BOND
     1    1    6 ar
     2    1    2 ar
     3    1   27 1
     4    2    3 ar
     5    2   28 1
     6    3   10 1
     7    3    4 ar
     8    4    5 ar
     9    4    8 1
    10    5    6 ar
    11    5   29 1
    12    6    7 1
    13    7   30 1
    14    8    9 1
    15    8   19 1
    16    9   10 2
    17   10   11 1
    18   11   16 ar
    19   11   12 ar
    20   12   13 ar
    21   12   31 1
    22   13   14 ar
    23   13   32 1
    24   14   15 ar
    25   14   18 1
    26   15   16 ar
    27   15   33 1
    28   16   17 1
    29   17   34 1
    30   18   35 1
    31   19   24 ar
    32   19   20 ar
    33   20   21 ar
    34   20   36 1
    35   21   22 ar
    36   21   26 1
    37   22   23 ar
    38   22   37 1
    39   23   24 ar
    40   23   38 1
    41   24   25 1
