@<TRIPOS>MOLECULE
CHEMBL121879
   61    65     0     0     0
SMALL
USER_CHARGES

@<TRIPOS>ATOM
      1 C1         -1.1285   -8.5313   -0.4553 C.3       1 <0>        -0.0547
      2 N1         -0.8118   -7.1188   -0.2053 N.4       1 <0>        -0.3650
      3 C2          0.4332   -7.0534    0.5569 C.3       1 <0>        -0.0060
      4 C3          1.1525   -5.7639    0.2284 C.3       1 <0>        -0.1594
      5 C4          0.7633   -4.6843    1.2547 C.3       1 <0>         0.1082
      6 N2         -0.6735   -4.7615    1.5876 N.pl3     1 <0>        -0.6365
      7 C5         -1.6905   -4.9959    0.5832 C.3       1 <0>         0.1088
      8 C6         -1.9255   -6.5163    0.4207 C.3       1 <0>        -0.0547
      9 C7         -1.0658   -4.6022    2.9186 C.ar      1 <0>         0.1985
     10 C8         -0.1307   -4.2454    3.8820 C.ar      1 <0>        -0.1847
     11 C9         -0.5220   -4.0883    5.1971 C.ar      1 <0>        -0.0512
     12 C10        -1.8429   -4.2861    5.5554 C.ar      1 <0>        -0.1204
     13 C11        -2.7763   -4.6414    4.5989 C.ar      1 <0>        -0.0285
     14 C12        -2.3929   -4.7946    3.2810 C.ar      1 <0>        -0.1944
     15 C13        -2.2660   -4.1147    6.9916 C.3       1 <0>         0.1518
     16 H1         -1.3933   -4.1902    7.6402 H         1 <0>         0.0936
     17 C14        -2.9239   -2.7366    7.1729 C.3       1 <0>        -0.0649
     18 H2         -2.2523   -1.9544    6.8192 H         1 <0>         0.1389
     19 S1         -3.2377   -2.5274    8.9539 S.3       1 <0>        -0.0827
     20 C15        -3.8764   -4.1069    9.4209 C.ar      1 <0>        -0.1479
     21 C16        -4.4946   -4.2458   10.6565 C.ar      1 <0>        -0.0894
     22 C17        -4.9962   -5.4760   11.0494 C.ar      1 <0>         0.0983
     23 C18        -4.8749   -6.5682   10.2028 C.ar      1 <0>        -0.1077
     24 C19        -4.2637   -6.4300    8.9737 C.ar      1 <0>        -0.1158
     25 C20        -3.7614   -5.1967    8.5652 C.ar      1 <0>         0.1209
     26 O1         -3.2014   -5.1257    7.3348 O.3       1 <0>        -0.3062
     27 O2         -5.6037   -5.6122   12.2583 O.3       1 <0>        -0.4919
     28 C21        -4.2226   -2.6824    6.4103 C.ar      1 <0>        -0.0855
     29 C22        -4.2956   -1.9817    5.2206 C.ar      1 <0>        -0.0814
     30 C23        -5.4850   -1.9302    4.5199 C.ar      1 <0>        -0.1455
     31 C24        -6.6067   -2.5825    5.0106 C.ar      1 <0>         0.1130
     32 C25        -6.5307   -3.2852    6.2044 C.ar      1 <0>        -0.1406
     33 C26        -5.3376   -3.3381    6.8987 C.ar      1 <0>        -0.0885
     34 O3         -7.7781   -2.5329    4.3234 O.3       1 <0>        -0.4966
     35 H3         -2.0022   -8.5986   -1.1035 H         1 <0>         0.1249
     36 H4         -0.2793   -9.0140   -0.9389 H         1 <0>         0.1254
     37 H5         -1.3390   -9.0294    0.4911 H         1 <0>         0.1222
     38 H6          0.2091   -7.0837    1.6231 H         1 <0>         0.1318
     39 H7          1.0662   -7.9006    0.2932 H         1 <0>         0.1345
     40 H8          2.2293   -5.9289    0.2652 H         1 <0>         0.1233
     41 H9          0.8692   -5.4341   -0.7711 H         1 <0>         0.0881
     42 H10         1.3491   -4.8264    2.1629 H         1 <0>         0.0992
     43 H11         0.9819   -3.7006    0.8393 H         1 <0>         0.0801
     44 H12        -2.6199   -4.5160    0.8898 H         1 <0>         0.1194
     45 H13        -1.3637   -4.5760   -0.3681 H         1 <0>         0.0953
     46 H14        -2.8146   -6.6810   -0.1880 H         1 <0>         0.1409
     47 H15        -2.0747   -6.9657    1.4025 H         1 <0>         0.1309
     48 H16         0.9012   -4.0914    3.6029 H         1 <0>         0.1296
     49 H17         0.2044   -3.8109    5.9465 H         1 <0>         0.1309
     50 H18        -3.8071   -4.7952    4.8821 H         1 <0>         0.1293
     51 H19        -3.1232   -5.0677    2.5337 H         1 <0>         0.1216
     52 H20        -4.5849   -3.3928   11.3127 H         1 <0>         0.1406
     53 H21        -5.2606   -7.5301   10.5068 H         1 <0>         0.1419
     54 H22        -4.1737   -7.2865    8.3220 H         1 <0>         0.1393
     55 H23        -6.5572   -5.4521   12.2396 H         1 <0>         0.3947
     56 H24        -3.4221   -1.4741    4.8390 H         1 <0>         0.1249
     57 H25        -5.5417   -1.3821    3.5910 H         1 <0>         0.1296
     58 H26        -7.4026   -3.7938    6.5885 H         1 <0>         0.1300
     59 H27        -5.2768   -3.8887    7.8258 H         1 <0>         0.1314
     60 H28        -7.8876   -3.2470    3.6807 H         1 <0>         0.3904
     61 H29        -0.6623   -6.6654   -1.0942 H         1 <0>         0.4181
@<TRIPOS>BOND
     1    1    2 1
     2    1   35 1
     3    1   36 1
     4    1   37 1
     5    2    8 1
     6    2    3 1
     7    2   61 1
     8    3    4 1
     9    3   38 1
    10    3   39 1
    11    4    5 1
    12    4   40 1
    13    4   41 1
    14    5    6 1
    15    5   42 1
    16    5   43 1
    17    6    7 1
    18    6    9 1
    19    7    8 1
    20    7   44 1
    21    7   45 1
    22    8   46 1
    23    8   47 1
    24    9   14 ar
    25    9   10 ar
    26   10   11 ar
    27   10   48 1
    28   11   12 ar
    29   11   49 1
    30   12   13 ar
    31   12   15 1
    32   13   14 ar
    33   13   50 1
    34   14   51 1
    35   15   16 1
    36   15   26 1
    37   15   17 1
    38   17   18 1
    39   17   19 1
    40   17   28 1
    41   19   20 1
    42   20   25 ar
    43   20   21 ar
    44   21   22 ar
    45   21   52 1
    46   22   23 ar
    47   22   27 1
    48   23   24 ar
    49   23   53 1
    50   24   25 ar
    51   24   54 1
    52   25   26 1
    53   27   55 1
    54   28   33 ar
    55   28   29 ar
    56   29   30 ar
    57   29   56 1
    58   30   31 ar
    59   30   57 1
    60   31   32 ar
    61   31   34 1
    62   32   33 ar
    63   32   58 1
    64   33   59 1
    65   34   60 1
