@<TRIPOS>MOLECULE
CHEMBL200799
   33    35     0     0     0
SMALL
USER_CHARGES

@<TRIPOS>ATOM
      1 C1         -0.0167    1.3795    0.0096 C.ar      1 <0>        -0.1031
      2 C2          1.1683    2.0940    0.0021 C.ar      1 <0>        -0.1163
      3 C3          2.3774    1.4304   -0.0134 C.ar      1 <0>        -0.1034
      4 C4          2.4038    0.0341   -0.0211 C.ar      1 <0>        -0.0371
      5 C5          1.2040   -0.6806   -0.0130 C.ar      1 <0>        -0.0807
      6 C6          0.0021   -0.0041    0.0020 C.ar      1 <0>        -0.1151
      7 C7          3.6944   -0.6832   -0.0382 C.2       1 <0>         0.0756
      8 C8          4.0485   -1.7742    0.7342 C.2       1 <0>         0.0703
      9 N1          5.3085   -2.1109    0.4008 N.2       1 <0>        -0.4122
     10 H1          4.8510    0.3066   -1.4871 H         1 <0>         0.4317
     11 C9          5.7472   -1.3005   -0.5216 C.2       1 <0>         0.1178
     12 N2          4.7848   -0.4042   -0.8304 N.pl3     1 <0>        -0.5281
     13 C10         7.1152   -1.3587   -1.1509 C.3       1 <0>         0.5648
     14 F1          7.7106   -2.5907   -0.8596 F         1 <0>        -0.1461
     15 F2          6.9973   -1.2139   -2.5374 F         1 <0>        -0.1681
     16 F3          7.9079   -0.3253   -0.6399 F         1 <0>        -0.1638
     17 C11         3.1981   -2.4479    1.7431 C.ar      1 <0>        -0.0215
     18 C12         2.3048   -1.7037    2.5136 C.ar      1 <0>        -0.0802
     19 C13         1.5145   -2.3342    3.4514 C.ar      1 <0>        -0.1438
     20 C14         1.6075   -3.7079    3.6294 C.ar      1 <0>         0.1138
     21 C15         2.4959   -4.4517    2.8645 C.ar      1 <0>        -0.1453
     22 C16         3.2848   -3.8287    1.9206 C.ar      1 <0>        -0.0710
     23 O1          0.8274   -4.3259    4.5548 O.3       1 <0>        -0.4990
     24 H2         -0.9606    1.9042    0.0260 H         1 <0>         0.1283
     25 H3          1.1463    3.1738    0.0081 H         1 <0>         0.1294
     26 H4          3.3015    1.9893   -0.0199 H         1 <0>         0.1227
     27 H5          1.2172   -1.7605   -0.0192 H         1 <0>         0.1297
     28 H6         -0.9265   -0.5555    0.0082 H         1 <0>         0.1309
     29 H7          2.2324   -0.6349    2.3762 H         1 <0>         0.1286
     30 H8          0.8226   -1.7586    4.0484 H         1 <0>         0.1323
     31 H9          2.5662   -5.5201    3.0061 H         1 <0>         0.1332
     32 H10         3.9725   -4.4085    1.3228 H         1 <0>         0.1334
     33 H11        -0.0257   -4.6263    4.2127 H         1 <0>         0.3924
@<TRIPOS>BOND
     1    1    6 ar
     2    1    2 ar
     3    1   24 1
     4    2    3 ar
     5    2   25 1
     6    3    4 ar
     7    3   26 1
     8    4    5 ar
     9    4    7 1
    10    5    6 ar
    11    5   27 1
    12    6   28 1
    13    7    8 2
    14    7   12 1
    15    8    9 1
    16    8   17 1
    17    9   11 2
    18   10   12 1
    19   11   13 1
    20   11   12 1
    21   13   14 1
    22   13   15 1
    23   13   16 1
    24   17   22 ar
    25   17   18 ar
    26   18   19 ar
    27   18   29 1
    28   19   20 ar
    29   19   30 1
    30   20   21 ar
    31   20   23 1
    32   21   22 ar
    33   21   31 1
    34   22   32 1
    35   23   33 1
