@<TRIPOS>MOLECULE
CHEMBL412907
   48    51     0     0     0
SMALL
USER_CHARGES

@<TRIPOS>ATOM
      1 C1          0.2354    1.5414    0.8659 C.ar      1 <0>        -0.1536
      2 C2          1.3283    1.7194    1.6943 C.ar      1 <0>        -0.0919
      3 C3          2.4836    0.9932    1.4815 C.ar      1 <0>        -0.1697
      4 C4          2.5470    0.0831    0.4339 C.ar      1 <0>         0.2247
      5 C5          1.4473   -0.0932   -0.3963 C.ar      1 <0>        -0.1655
      6 C6          0.2951    0.6363   -0.1779 C.ar      1 <0>        -0.0895
      7 N1          3.7139   -0.6527    0.2155 N.pl3     1 <0>        -0.6547
      8 C7          5.0291    0.0041    0.1338 C.3       1 <0>         0.1371
      9 C8          5.8746   -0.4907    1.3063 C.3       1 <0>        -0.1016
     10 C9          5.8029   -1.9905    1.4238 C.ar      1 <0>        -0.0467
     11 C10         6.8127   -2.6290    2.1321 C.ar      1 <0>        -0.1542
     12 C11         6.8021   -4.0043    2.2869 C.ar      1 <0>         0.1075
     13 C12         5.7732   -4.7509    1.7305 C.ar      1 <0>        -0.1556
     14 C13         4.7740   -4.1157    1.0245 C.ar      1 <0>        -0.1400
     15 C14         4.7886   -2.7361    0.8651 C.ar      1 <0>        -0.0975
     16 C15         3.6790   -2.1112    0.0645 C.3       1 <0>         0.2117
     17 C16         2.3328   -2.6423    0.5611 C.3       1 <0>        -0.0869
     18 C17         2.4317   -4.1525    0.7856 C.3       1 <0>        -0.1537
     19 C18         1.0855   -4.6836    1.2822 C.3       1 <0>        -0.1203
     20 C19         0.7200   -3.9951    2.5988 C.3       1 <0>        -0.1198
     21 C20         0.6210   -2.4849    2.3743 C.3       1 <0>        -0.1146
     22 C21         1.9672   -1.9539    1.8777 C.3       1 <0>        -0.1426
     23 O1          7.7950   -4.6208    2.9803 O.3       1 <0>        -0.5009
     24 H1         -0.6683    2.1073    1.0372 H         1 <0>         0.1188
     25 H2          1.2785    2.4273    2.5083 H         1 <0>         0.1204
     26 H3          3.3369    1.1329    2.1285 H         1 <0>         0.1193
     27 H4          1.4934   -0.7997   -1.2119 H         1 <0>         0.1203
     28 H5         -0.5602    0.4997   -0.8230 H         1 <0>         0.1202
     29 H6          5.5140   -0.2572   -0.8067 H         1 <0>         0.0657
     30 H7          4.9060    1.0852    0.1982 H         1 <0>         0.0818
     31 H8          6.9115   -0.1925    1.1516 H         1 <0>         0.0814
     32 H9          5.5068   -0.0409    2.2285 H         1 <0>         0.0787
     33 H10         7.6127   -2.0474    2.5660 H         1 <0>         0.1246
     34 H11         5.7552   -5.8241    1.8503 H         1 <0>         0.1277
     35 H12         3.9727   -4.6960    0.5914 H         1 <0>         0.1807
     36 H13         3.8047   -2.3701   -0.9868 H         1 <0>         0.0710
     37 H14         1.5636   -2.4352   -0.1830 H         1 <0>         0.0811
     38 H15         2.6922   -4.6430   -0.1523 H         1 <0>         0.0716
     39 H16         3.2008   -4.3596    1.5297 H         1 <0>         0.1103
     40 H17         0.3164   -4.4765    0.5381 H         1 <0>         0.0599
     41 H18         1.1560   -5.7595    1.4422 H         1 <0>         0.0620
     42 H19        -0.2391   -4.3735    2.9525 H         1 <0>         0.0585
     43 H20         1.4891   -4.2022    3.3429 H         1 <0>         0.0584
     44 H21        -0.1481   -2.2779    1.6302 H         1 <0>         0.0589
     45 H22         0.3606   -1.9945    3.3122 H         1 <0>         0.0572
     46 H23         2.7363   -2.1609    2.6217 H         1 <0>         0.0547
     47 H24         1.8967   -0.8780    1.7177 H         1 <0>         0.1052
     48 H25         7.6163   -4.7118    3.9263 H         1 <0>         0.3899
@<TRIPOS>BOND
     1    1    6 ar
     2    1    2 ar
     3    1   24 1
     4    2    3 ar
     5    2   25 1
     6    3    4 ar
     7    3   26 1
     8    4    5 ar
     9    4    7 1
    10    5    6 ar
    11    5   27 1
    12    6   28 1
    13    7   16 1
    14    7    8 1
    15    8    9 1
    16    8   29 1
    17    8   30 1
    18    9   10 1
    19    9   31 1
    20    9   32 1
    21   10   15 ar
    22   10   11 ar
    23   11   12 ar
    24   11   33 1
    25   12   13 ar
    26   12   23 1
    27   13   14 ar
    28   13   34 1
    29   14   15 ar
    30   14   35 1
    31   15   16 1
    32   16   17 1
    33   16   36 1
    34   17   22 1
    35   17   18 1
    36   17   37 1
    37   18   19 1
    38   18   38 1
    39   18   39 1
    40   19   20 1
    41   19   40 1
    42   19   41 1
    43   20   21 1
    44   20   42 1
    45   20   43 1
    46   21   22 1
    47   21   44 1
    48   21   45 1
    49   22   46 1
    50   22   47 1
    51   23   48 1
