@<TRIPOS>MOLECULE
CHEMBL103
   51    54     0     0     0
SMALL
USER_CHARGES

@<TRIPOS>ATOM
      1 C1         -1.2451    0.7480    0.4418 C.3       1 <0>        -0.2079
      2 C2         -0.0130   -0.0024    0.0062 C.2       1 <0>         0.3652
      3 O1          0.9705   -0.0070    0.7070 O.2       1 <0>        -0.4548
      4 C3         -0.0081   -0.7470   -1.3040 C.3       1 <0>        -0.1325
      5 H1         -0.6004   -0.2102   -2.0450 H         1 <0>         0.0978
      6 C4          1.4441   -0.9331   -1.8102 C.3       1 <0>        -0.1188
      7 C5          1.6574   -2.4625   -1.9764 C.3       1 <0>        -0.1150
      8 C6          0.2304   -2.9896   -2.1637 C.3       1 <0>        -0.0798
      9 H2         -0.1277   -2.7656   -3.1686 H         1 <0>         0.0787
     10 C7         -0.5545   -2.1580   -1.1120 C.3       1 <0>        -0.0490
     11 C8         -2.0316   -2.3550   -1.3940 C.3       1 <0>        -0.1045
     12 C9         -2.3478   -3.8377   -1.1415 C.3       1 <0>        -0.1235
     13 C10        -1.4843   -4.7528   -2.0045 C.3       1 <0>        -0.0601
     14 H3         -1.7432   -4.6061   -3.0531 H         1 <0>         0.0745
     15 C11         0.0221   -4.4589   -1.8452 C.3       1 <0>        -0.0789
     16 H4          0.3211   -4.6582   -0.8161 H         1 <0>         0.0881
     17 C12         0.8336   -5.3210   -2.8143 C.3       1 <0>        -0.1115
     18 C13         0.6511   -6.8015   -2.4654 C.3       1 <0>        -0.0957
     19 C14        -0.8350   -7.1068   -2.4640 C.2       1 <0>        -0.0284
     20 C15        -1.2808   -8.1344   -3.1732 C.2       1 <0>        -0.2297
     21 C16        -2.7173   -8.4490   -3.2129 C.2       1 <0>         0.4070
     22 O2         -3.1261   -9.4144   -3.8306 O.2       1 <0>        -0.4592
     23 C17        -3.6494   -7.5692   -2.4875 C.2       1 <0>        -0.2152
     24 C18        -3.1814   -6.5528   -1.7801 C.2       1 <0>        -0.0691
     25 C19        -1.7496   -6.2111   -1.6194 C.3       1 <0>        -0.0096
     26 C20        -1.3852   -6.3767   -0.1426 C.3       1 <0>        -0.1439
     27 C21        -0.2211   -2.6561    0.2957 C.3       1 <0>        -0.1576
     28 H5         -1.1980    1.7713    0.0694 H         1 <0>         0.0957
     29 H6         -2.1311    0.2558    0.0407 H         1 <0>         0.0848
     30 H7         -1.2975    0.7596    1.5305 H         1 <0>         0.0840
     31 H8          1.5734   -0.4309   -2.7690 H         1 <0>         0.0678
     32 H9          2.1487   -0.5342   -1.0805 H         1 <0>         0.0793
     33 H10         2.2652   -2.6738   -2.8562 H         1 <0>         0.0683
     34 H11         2.1113   -2.8881   -1.0814 H         1 <0>         0.0703
     35 H12        -2.6237   -1.7300   -0.7256 H         1 <0>         0.0680
     36 H13        -2.2487   -2.1005   -2.4314 H         1 <0>         0.0694
     37 H14        -2.1679   -4.0658   -0.0909 H         1 <0>         0.0760
     38 H15        -3.3979   -4.0211   -1.3691 H         1 <0>         0.0674
     39 H16         0.4893   -5.1434   -3.8331 H         1 <0>         0.0670
     40 H17         1.8885   -5.0577   -2.7377 H         1 <0>         0.0747
     41 H18         1.1530   -7.4195   -3.2098 H         1 <0>         0.0801
     42 H19         1.0686   -7.0011   -1.4785 H         1 <0>         0.0852
     43 H20        -0.5834   -8.7455   -3.7269 H         1 <0>         0.1363
     44 H21        -4.7127   -7.7527   -2.5328 H         1 <0>         0.1390
     45 H22        -3.8925   -5.9231   -1.2661 H         1 <0>         0.1246
     46 H23        -1.9994   -5.7079    0.4604 H         1 <0>         0.0732
     47 H24        -1.5638   -7.4078    0.1623 H         1 <0>         0.0615
     48 H25        -0.3327   -6.1323    0.0015 H         1 <0>         0.0724
     49 H26        -0.7596   -2.0571    1.0300 H         1 <0>         0.0521
     50 H27        -0.5173   -3.7007    0.3912 H         1 <0>         0.0708
     51 H28         0.8513   -2.5653    0.4688 H         1 <0>         0.0653
@<TRIPOS>BOND
     1    1    2 1
     2    1   28 1
     3    1   29 1
     4    1   30 1
     5    2    3 2
     6    2    4 1
     7    4    5 1
     8    4   10 1
     9    4    6 1
    10    6    7 1
    11    6   31 1
    12    6   32 1
    13    7    8 1
    14    7   33 1
    15    7   34 1
    16    8    9 1
    17    8   15 1
    18    8   10 1
    19   10   11 1
    20   10   27 1
    21   11   12 1
    22   11   35 1
    23   11   36 1
    24   12   13 1
    25   12   37 1
    26   12   38 1
    27   13   14 1
    28   13   25 1
    29   13   15 1
    30   15   16 1
    31   15   17 1
    32   17   18 1
    33   17   39 1
    34   17   40 1
    35   18   19 1
    36   18   41 1
    37   18   42 1
    38   19   25 1
    39   19   20 2
    40   20   21 1
    41   20   43 1
    42   21   22 2
    43   21   23 1
    44   23   24 2
    45   23   44 1
    46   24   25 1
    47   24   45 1
    48   25   26 1
    49   26   46 1
    50   26   47 1
    51   26   48 1
    52   27   49 1
    53   27   50 1
    54   27   51 1
