@<TRIPOS>MOLECULE
CHEMBL241304
   82    86     0     0     0
SMALL
USER_CHARGES

@<TRIPOS>ATOM
      1 C1         -0.0187    1.5258    0.0104 C.3       1 <0>        -0.1657
      2 C2          0.0021   -0.0041    0.0020 C.3       1 <0>         0.1425
      3 H1          0.5293   -0.3651    0.8851 H         1 <0>         0.0890
      4 C3          0.7182   -0.4975   -1.2568 C.3       1 <0>        -0.1225
      5 C4          0.8493   -2.0210   -1.2049 C.3       1 <0>        -0.0775
      6 C5          1.5546   -2.5070   -2.4448 C.ar      1 <0>        -0.0935
      7 C6          0.8231   -2.8339   -3.5717 C.ar      1 <0>        -0.1008
      8 C7          1.4673   -3.2801   -4.7094 C.ar      1 <0>        -0.1427
      9 C8          2.8494   -3.3996   -4.7207 C.ar      1 <0>         0.1019
     10 C9          3.5812   -3.0705   -3.5889 C.ar      1 <0>        -0.1423
     11 C10         2.9326   -2.6199   -2.4555 C.ar      1 <0>        -0.1006
     12 O1          3.4855   -3.8387   -5.8386 O.3       1 <0>        -0.5006
     13 N1         -1.3723   -0.5112    0.0124 N.am      1 <0>        -0.7285
     14 C11        -2.0286   -0.6552    1.1807 C.2       1 <0>         0.5131
     15 O2         -1.4814   -0.3650    2.2235 O.2       1 <0>        -0.5247
     16 C12        -3.4424   -1.1768    1.1914 C.3       1 <0>        -0.0716
     17 C13        -3.9431   -1.2421    2.6114 C.2       1 <0>        -0.1245
     18 C14        -3.8204   -2.3765    3.5261 C.ar      1 <0>        -0.1131
     19 C15        -3.2596   -3.6525    3.4140 C.ar      1 <0>        -0.0252
     20 C16        -3.3048   -4.5102    4.4752 C.ar      1 <0>        -0.2239
     21 C17        -3.9063   -4.1237    5.6708 C.ar      1 <0>         0.1388
     22 C18        -4.4669   -2.8669    5.8017 C.ar      1 <0>        -0.1620
     23 C19        -4.4299   -1.9794    4.7316 C.ar      1 <0>         0.1437
     24 N2         -4.8895   -0.6926    4.5572 N.pl3     1 <0>        -0.5838
     25 H2         -5.3521   -0.1694    5.2303 H         1 <0>         0.4188
     26 C20        -4.5876   -0.2583    3.2857 C.2       1 <0>         0.1385
     27 C21        -4.9191    1.0749    2.7385 C.ar      1 <0>        -0.0435
     28 C22        -3.9675    1.7896    2.0097 C.ar      1 <0>        -0.0937
     29 C23        -4.2831    3.0330    1.5019 C.ar      1 <0>        -0.1167
     30 C24        -5.5398    3.5715    1.7140 C.ar      1 <0>        -0.1064
     31 C25        -6.4877    2.8681    2.4357 C.ar      1 <0>        -0.1170
     32 C26        -6.1867    1.6213    2.9439 C.ar      1 <0>        -0.1052
     33 O3         -3.9427   -4.9901    6.7176 O.3       1 <0>        -0.3142
     34 C27        -3.3466   -6.2735    6.5186 C.3       1 <0>         0.0651
     35 C28        -3.4838   -7.1033    7.7966 C.3       1 <0>        -0.1510
     36 C29        -2.8456   -8.4774    7.5836 C.3       1 <0>        -0.0061
     37 N3         -2.9773   -9.2741    8.8107 N.4       1 <0>        -0.3814
     38 C30        -2.2068   -8.6415    9.8880 C.3       1 <0>        -0.0140
     39 C31        -2.4058   -9.4224   11.1889 C.3       1 <0>        -0.1459
     40 C32        -1.9239  -10.8626   10.9922 C.3       1 <0>        -0.1399
     41 C33        -2.6820  -11.4883    9.8179 C.3       1 <0>        -0.1464
     42 C34        -2.4728  -10.6309    8.5679 C.3       1 <0>        -0.0066
     43 H3          1.0039    1.9031    0.0027 H         1 <0>         0.0668
     44 H4         -0.5459    1.8868   -0.8726 H         1 <0>         0.0584
     45 H5         -0.5289    1.8773    0.9072 H         1 <0>         0.0607
     46 H6          0.1430   -0.2121   -2.1375 H         1 <0>         0.0721
     47 H7          1.7103   -0.0491   -1.3098 H         1 <0>         0.0820
     48 H8          1.4245   -2.3064   -0.3242 H         1 <0>         0.0731
     49 H9         -0.1428   -2.4694   -1.1520 H         1 <0>         0.0729
     50 H10        -0.2528   -2.7407   -3.5623 H         1 <0>         0.1253
     51 H11         0.8955   -3.5360   -5.5891 H         1 <0>         0.1288
     52 H12         4.6572   -3.1627   -3.5953 H         1 <0>         0.1289
     53 H13         3.5021   -2.3594   -1.5756 H         1 <0>         0.1259
     54 H14         3.7392   -3.1334   -6.4495 H         1 <0>         0.3926
     55 H15        -1.8100   -0.7432   -0.8215 H         1 <0>         0.3998
     56 H16        -4.0803   -0.5097    0.6116 H         1 <0>         0.1026
     57 H17        -3.4651   -2.1740    0.7520 H         1 <0>         0.1018
     58 H18        -2.7919   -3.9589    2.4900 H         1 <0>         0.1257
     59 H19        -2.8716   -5.4955    4.3870 H         1 <0>         0.1251
     60 H20        -4.9319   -2.5751    6.7317 H         1 <0>         0.1294
     61 H21        -2.9860    1.3705    1.8437 H         1 <0>         0.1307
     62 H22        -3.5475    3.5873    0.9380 H         1 <0>         0.1276
     63 H23        -5.7817    4.5454    1.3148 H         1 <0>         0.1273
     64 H24        -7.4667    3.2942    2.5981 H         1 <0>         0.1281
     65 H25        -6.9290    1.0712    3.5033 H         1 <0>         0.1219
     66 H26        -3.8498   -6.7845    5.6978 H         1 <0>         0.0726
     67 H27        -2.2909   -6.1502    6.2770 H         1 <0>         0.0722
     68 H28        -2.9806   -6.5922    8.6174 H         1 <0>         0.0985
     69 H29        -4.5396   -7.2266    8.0382 H         1 <0>         0.0986
     70 H30        -3.3488   -8.9884    6.7628 H         1 <0>         0.1353
     71 H31        -1.7898   -8.3541    7.3420 H         1 <0>         0.1335
     72 H32        -1.1491   -8.6390    9.6245 H         1 <0>         0.1295
     73 H33        -2.5488   -7.6156   10.0247 H         1 <0>         0.1324
     74 H34        -1.8315   -8.9522   11.9871 H         1 <0>         0.1123
     75 H35        -3.4632   -9.4253   11.4535 H         1 <0>         0.0878
     76 H36        -0.8552  -10.8633   10.7779 H         1 <0>         0.0819
     77 H37        -2.1155  -11.4380   11.8979 H         1 <0>         0.0944
     78 H38        -2.3052  -12.4948    9.6362 H         1 <0>         0.1127
     79 H39        -3.7452  -11.5341   10.0541 H         1 <0>         0.0878
     80 H40        -3.0111  -11.0737    7.7299 H         1 <0>         0.1308
     81 H41        -1.4094  -10.5859    8.3325 H         1 <0>         0.1290
     82 H42        -3.9493   -9.3205    9.0776 H         1 <0>         0.4235
@<TRIPOS>BOND
     1    1    2 1
     2    1   43 1
     3    1   44 1
     4    1   45 1
     5    2    3 1
     6    2    4 1
     7    2   13 1
     8    4    5 1
     9    4   46 1
    10    4   47 1
    11    5    6 1
    12    5   48 1
    13    5   49 1
    14    6   11 ar
    15    6    7 ar
    16    7    8 ar
    17    7   50 1
    18    8    9 ar
    19    8   51 1
    20    9   10 ar
    21    9   12 1
    22   10   11 ar
    23   10   52 1
    24   11   53 1
    25   12   54 1
    26   13   14 am
    27   13   55 1
    28   14   15 2
    29   14   16 1
    30   16   17 1
    31   16   56 1
    32   16   57 1
    33   17   26 2
    34   17   18 1
    35   18   23 ar
    36   18   19 ar
    37   19   20 ar
    38   19   58 1
    39   20   21 ar
    40   20   59 1
    41   21   22 ar
    42   21   33 1
    43   22   23 ar
    44   22   60 1
    45   23   24 1
    46   24   25 1
    47   24   26 1
    48   26   27 1
    49   27   32 ar
    50   27   28 ar
    51   28   29 ar
    52   28   61 1
    53   29   30 ar
    54   29   62 1
    55   30   31 ar
    56   30   63 1
    57   31   32 ar
    58   31   64 1
    59   32   65 1
    60   33   34 1
    61   34   35 1
    62   34   66 1
    63   34   67 1
    64   35   36 1
    65   35   68 1
    66   35   69 1
    67   36   37 1
    68   36   70 1
    69   36   71 1
    70   37   42 1
    71   37   38 1
    72   37   82 1
    73   38   39 1
    74   38   72 1
    75   38   73 1
    76   39   40 1
    77   39   74 1
    78   39   75 1
    79   40   41 1
    80   40   76 1
    81   40   77 1
    82   41   42 1
    83   41   78 1
    84   41   79 1
    85   42   80 1
    86   42   81 1
