@<TRIPOS>MOLECULE
CHEMBL390448
   73    77     0     0     0
SMALL
USER_CHARGES

@<TRIPOS>ATOM
      1 C1         -0.3951    1.2559    0.2048 C.3       1 <0>        -0.6574
      2 S1         -0.4626   -0.5553    0.1283 S.o2      1 <0>         2.4161
      3 O1          0.2619   -1.0791    1.2329 O.2       1 <0>        -0.9331
      4 O2         -1.8155   -0.9472   -0.0591 O.2       1 <0>        -0.9351
      5 C2          0.4581   -0.9268   -1.3899 C.3       1 <0>        -0.5739
      6 C3          0.3718   -2.4283   -1.6904 C.3       1 <0>        -0.1017
      7 C4          1.3080   -2.7441   -2.8587 C.3       1 <0>        -0.0710
      8 C5          1.0635   -1.7882   -3.9898 C.2       1 <0>        -0.0736
      9 C6          0.4237   -0.6498   -3.8591 C.2       1 <0>        -0.1360
     10 C7         -0.1555   -0.1607   -2.5637 C.3       1 <0>        -0.0731
     11 C8          1.5729   -2.1495   -5.3275 C.ar      1 <0>        -0.0491
     12 C9          2.9478   -2.0506   -5.6009 C.ar      1 <0>        -0.0944
     13 C10         3.4409   -2.3774   -6.8229 C.ar      1 <0>        -0.0926
     14 C11         2.5747   -2.8228   -7.8392 C.ar      1 <0>        -0.0268
     15 C12         3.0673   -3.1656   -9.1087 C.ar      1 <0>        -0.1333
     16 C13         2.1952   -3.5982  -10.0816 C.ar      1 <0>         0.1187
     17 C14         0.8255   -3.6997   -9.8190 C.ar      1 <0>        -0.1308
     18 C15         0.3229   -3.3740   -8.5980 C.ar      1 <0>        -0.0854
     19 C16         1.1850   -2.9287   -7.5816 C.ar      1 <0>        -0.0655
     20 C17         0.6898   -2.5909   -6.3070 C.ar      1 <0>         0.0953
     21 O3         -0.6364   -2.6908   -6.0387 O.3       1 <0>        -0.2413
     22 C18        -1.4197   -1.6060   -6.2790 C.ar      1 <0>         0.1128
     23 C19        -0.8583   -0.4442   -6.7889 C.ar      1 <0>        -0.1546
     24 C20        -1.6542    0.6577   -7.0334 C.ar      1 <0>        -0.1007
     25 C21        -3.0147    0.6031   -6.7687 C.ar      1 <0>         0.0790
     26 C22        -3.5761   -0.5582   -6.2584 C.ar      1 <0>        -0.1606
     27 C23        -2.7814   -1.6623   -6.0197 C.ar      1 <0>        -0.1056
     28 O4         -3.7981    1.6882   -7.0090 O.3       1 <0>        -0.3280
     29 C24        -5.1904    1.5615   -6.7132 C.3       1 <0>         0.0251
     30 C25        -5.9039    2.8734   -7.0459 C.3       1 <0>        -0.0008
     31 N1         -5.8074    3.1310   -8.4890 N.4       1 <0>        -0.3841
     32 C26        -6.3537    4.4609   -8.7847 C.3       1 <0>        -0.0070
     33 C27        -6.1818    4.7675  -10.2739 C.3       1 <0>        -0.1467
     34 C28        -6.9283    3.7129  -11.0960 C.3       1 <0>        -0.1390
     35 C29        -6.4016    2.3237  -10.7249 C.3       1 <0>        -0.1455
     36 C30        -6.5653    2.1076   -9.2189 C.3       1 <0>        -0.0131
     37 O5          2.6703   -3.9297  -11.3106 O.3       1 <0>        -0.4978
     38 H1          0.6447    1.5790    0.2534 H         1 <0>         0.1307
     39 H2         -0.8645    1.6748   -0.6853 H         1 <0>         0.1276
     40 H3         -0.9250    1.6020    1.0922 H         1 <0>         0.1328
     41 H4          1.5008   -0.6343   -1.2666 H         1 <0>         0.1431
     42 H5          0.6782   -2.9959   -0.8118 H         1 <0>         0.0866
     43 H6         -0.6515   -2.6895   -1.9602 H         1 <0>         0.0869
     44 H7          2.3425   -2.6545   -2.5272 H         1 <0>         0.0844
     45 H8          1.1274   -3.7630   -3.2013 H         1 <0>         0.0852
     46 H9          0.3072   -0.0287   -4.7348 H         1 <0>         0.1121
     47 H10        -1.2348   -0.3128   -2.5698 H         1 <0>         0.0935
     48 H11         0.0569    0.9025   -2.4517 H         1 <0>         0.0883
     49 H12         3.6212   -1.7096   -4.8286 H         1 <0>         0.1363
     50 H13         4.5003   -2.2950   -7.0158 H         1 <0>         0.1386
     51 H14         4.1236   -3.0898   -9.3204 H         1 <0>         0.1408
     52 H15         0.1579   -4.0409  -10.5963 H         1 <0>         0.1338
     53 H16        -0.7374   -3.4571   -8.4100 H         1 <0>         0.1315
     54 H17         0.2012   -0.4014   -6.9943 H         1 <0>         0.1378
     55 H18        -1.2172    1.5621   -7.4303 H         1 <0>         0.1355
     56 H19        -4.6353   -0.6005   -6.0521 H         1 <0>         0.1354
     57 H20        -3.2193   -2.5681   -5.6269 H         1 <0>         0.1417
     58 H21        -5.6166    0.7547   -7.3096 H         1 <0>         0.0858
     59 H22        -5.3179    1.3369   -5.6543 H         1 <0>         0.1097
     60 H23        -6.9530    2.7992   -6.7595 H         1 <0>         0.1488
     61 H24        -5.4348    3.6910   -6.4987 H         1 <0>         0.1422
     62 H25        -7.4131    4.4830   -8.5295 H         1 <0>         0.1292
     63 H26        -5.8235    5.2099   -8.1964 H         1 <0>         0.1308
     64 H27        -6.5896    5.7545  -10.4918 H         1 <0>         0.1129
     65 H28        -5.1226    4.7459  -10.5301 H         1 <0>         0.0878
     66 H29        -7.9949    3.7686  -10.8780 H         1 <0>         0.0822
     67 H30        -6.7623    3.8940  -12.1580 H         1 <0>         0.0946
     68 H31        -6.9665    1.5640  -11.2651 H         1 <0>         0.1122
     69 H32        -5.3469    2.2514  -10.9905 H         1 <0>         0.0877
     70 H33        -6.1915    1.1194   -8.9513 H         1 <0>         0.1276
     71 H34        -7.6203    2.1799   -8.9545 H         1 <0>         0.1303
     72 H35         2.9214   -4.8595  -11.3975 H         1 <0>         0.3973
     73 H36        -4.8394    3.0967   -8.7717 H         1 <0>         0.4293
@<TRIPOS>BOND
     1    1    2 1
     2    1   38 1
     3    1   39 1
     4    1   40 1
     5    2    3 2
     6    2    4 2
     7    2    5 1
     8    5   10 1
     9    5    6 1
    10    5   41 1
    11    6    7 1
    12    6   42 1
    13    6   43 1
    14    7    8 1
    15    7   44 1
    16    7   45 1
    17    8    9 2
    18    8   11 1
    19    9   10 1
    20    9   46 1
    21   10   47 1
    22   10   48 1
    23   11   20 ar
    24   11   12 ar
    25   12   13 ar
    26   12   49 1
    27   13   14 ar
    28   13   50 1
    29   14   19 ar
    30   14   15 ar
    31   15   16 ar
    32   15   51 1
    33   16   17 ar
    34   16   37 1
    35   17   18 ar
    36   17   52 1
    37   18   19 ar
    38   18   53 1
    39   19   20 ar
    40   20   21 1
    41   21   22 1
    42   22   27 ar
    43   22   23 ar
    44   23   24 ar
    45   23   54 1
    46   24   25 ar
    47   24   55 1
    48   25   26 ar
    49   25   28 1
    50   26   27 ar
    51   26   56 1
    52   27   57 1
    53   28   29 1
    54   29   30 1
    55   29   58 1
    56   29   59 1
    57   30   31 1
    58   30   60 1
    59   30   61 1
    60   31   36 1
    61   31   32 1
    62   31   73 1
    63   32   33 1
    64   32   62 1
    65   32   63 1
    66   33   34 1
    67   33   64 1
    68   33   65 1
    69   34   35 1
    70   34   66 1
    71   34   67 1
    72   35   36 1
    73   35   68 1
    74   35   69 1
    75   36   70 1
    76   36   71 1
    77   37   72 1
