@<TRIPOS>MOLECULE
CHEMBL181248
   71    75     0     0     0
SMALL
USER_CHARGES

@<TRIPOS>ATOM
      1 C1         -1.7571   -1.1793    2.2423 C.3       1 <0>        -0.1967
      2 C2         -1.4327   -2.1678    1.1204 C.3       1 <0>         0.0206
      3 H1         -2.2760   -2.2384    0.4333 H         1 <0>         0.1383
      4 C3         -1.1243   -3.5569    1.7176 C.3       1 <0>        -0.1369
      5 C4          0.0340   -4.0724    0.8235 C.3       1 <0>        -0.1441
      6 C5          0.8151   -2.7653    0.5391 C.3       1 <0>        -0.0143
      7 N1         -0.2292   -1.7241    0.3934 N.4       1 <0>        -0.3861
      8 C6          0.2518   -0.4571    0.9602 C.3       1 <0>         0.0216
      9 H2         -0.5979    0.1922    1.1714 H         1 <0>         0.1629
     10 C7          1.0154   -0.7355    2.2565 C.3       1 <0>        -0.1878
     11 C8          1.1817    0.2296   -0.0421 C.3       1 <0>         0.0339
     12 O1          2.3506   -0.5701   -0.2326 O.3       1 <0>        -0.3219
     13 C9          3.2857   -0.0993   -1.0991 C.ar      1 <0>         0.1212
     14 C10         3.0851    1.1102   -1.7483 C.ar      1 <0>        -0.2044
     15 C11         4.0373    1.5868   -2.6283 C.ar      1 <0>        -0.0618
     16 C12         5.1895    0.8592   -2.8627 C.ar      1 <0>        -0.1071
     17 C13         5.3916   -0.3468   -2.2173 C.ar      1 <0>        -0.0365
     18 C14         4.4452   -0.8247   -1.3317 C.ar      1 <0>        -0.1434
     19 C15         6.2264    1.3812   -3.8236 C.3       1 <0>         0.1418
     20 H3          5.7741    2.1185   -4.4868 H         1 <0>         0.0920
     21 C16         7.3770    2.0271   -3.0412 C.3       1 <0>        -0.0690
     22 H4          6.9848    2.8045   -2.3856 H         1 <0>         0.1056
     23 C17         8.3543    2.6434   -4.0453 C.3       1 <0>        -0.0426
     24 H5          9.2740    2.9231   -3.5315 H         1 <0>         0.0993
     25 C18         8.6690    1.6420   -5.1277 C.ar      1 <0>        -0.1776
     26 C19         7.8610    0.5402   -5.3480 C.ar      1 <0>         0.1555
     27 C20         8.1798   -0.3591   -6.3597 C.ar      1 <0>        -0.1421
     28 C21         9.2998   -0.1602   -7.1419 C.ar      1 <0>        -0.0806
     29 C22        10.1114    0.9410   -6.9200 C.ar      1 <0>         0.0463
     30 C23         9.7939    1.8412   -5.9127 C.ar      1 <0>         0.1108
     31 F1         10.5840    2.9156   -5.6964 F         1 <0>        -0.1230
     32 O2         11.2168    1.1391   -7.6879 O.3       1 <0>        -0.4836
     33 O3          6.7550    0.3012   -4.5942 O.3       1 <0>        -0.2939
     34 C24         7.7226    3.8879   -4.6723 C.3       1 <0>        -0.1488
     35 C25         8.0841    0.9796   -2.2203 C.ar      1 <0>        -0.0896
     36 C26         9.0699    0.2002   -2.7969 C.ar      1 <0>        -0.1014
     37 C27         9.7193   -0.7610   -2.0467 C.ar      1 <0>        -0.1413
     38 C28         9.3818   -0.9436   -0.7135 C.ar      1 <0>         0.1097
     39 C29         8.3926   -0.1601   -0.1372 C.ar      1 <0>        -0.1467
     40 C30         7.7499    0.8033   -0.8903 C.ar      1 <0>        -0.0892
     41 O4         10.0188   -1.8889    0.0265 O.3       1 <0>        -0.5009
     42 H6         -1.9125   -0.1871    1.8186 H         1 <0>         0.0828
     43 H7         -2.6620   -1.4997    2.7585 H         1 <0>         0.1035
     44 H8         -0.9278   -1.1467    2.9489 H         1 <0>         0.0959
     45 H9         -0.8003   -3.4673    2.7545 H         1 <0>         0.0992
     46 H10        -1.9924   -4.2115    1.6392 H         1 <0>         0.1122
     47 H11         0.6543   -4.7885    1.3625 H         1 <0>         0.1162
     48 H12        -0.3491   -4.5071   -0.0997 H         1 <0>         0.0968
     49 H13         1.4752   -2.5284    1.3735 H         1 <0>         0.1431
     50 H14         1.3874   -2.8585   -0.3839 H         1 <0>         0.1347
     51 H15         0.9890    0.1503    2.8911 H         1 <0>         0.1032
     52 H16         0.5507   -1.5713    2.7796 H         1 <0>         0.0898
     53 H17         2.0505   -0.9839    2.0222 H         1 <0>         0.0973
     54 H18         0.6647    0.3498   -0.9941 H         1 <0>         0.0849
     55 H19         1.4697    1.2085    0.3411 H         1 <0>         0.1081
     56 H20         2.1850    1.6786   -1.5661 H         1 <0>         0.1293
     57 H21         3.8816    2.5283   -3.1339 H         1 <0>         0.1322
     58 H22         6.2922   -0.9135   -2.4023 H         1 <0>         0.1379
     59 H23         4.6056   -1.7646   -0.8244 H         1 <0>         0.1328
     60 H24         7.5482   -1.2176   -6.5342 H         1 <0>         0.1443
     61 H25         9.5434   -0.8622   -7.9257 H         1 <0>         0.1496
     62 H26        11.0547    1.6666   -8.4820 H         1 <0>         0.3931
     63 H27         7.4978    4.6140   -3.8911 H         1 <0>         0.0685
     64 H28         8.4181    4.3272   -5.3874 H         1 <0>         0.0670
     65 H29         6.8021    3.6090   -5.1850 H         1 <0>         0.0580
     66 H30         9.3323    0.3428   -3.8348 H         1 <0>         0.1372
     67 H31        10.4888   -1.3699   -2.4978 H         1 <0>         0.1288
     68 H32         8.1281   -0.3004    0.9005 H         1 <0>         0.1270
     69 H33         6.9828    1.4166   -0.4409 H         1 <0>         0.1216
     70 H34        10.8122   -1.5675    0.4764 H         1 <0>         0.3940
     71 H35        -0.4501   -1.5959   -0.5827 H         1 <0>         0.4231
@<TRIPOS>BOND
     1    1    2 1
     2    1   42 1
     3    1   43 1
     4    1   44 1
     5    2    3 1
     6    2    7 1
     7    2    4 1
     8    4    5 1
     9    4   45 1
    10    4   46 1
    11    5    6 1
    12    5   47 1
    13    5   48 1
    14    6    7 1
    15    6   49 1
    16    6   50 1
    17    7    8 1
    18    7   71 1
    19    8    9 1
    20    8   10 1
    21    8   11 1
    22   10   51 1
    23   10   52 1
    24   10   53 1
    25   11   12 1
    26   11   54 1
    27   11   55 1
    28   12   13 1
    29   13   18 ar
    30   13   14 ar
    31   14   15 ar
    32   14   56 1
    33   15   16 ar
    34   15   57 1
    35   16   17 ar
    36   16   19 1
    37   17   18 ar
    38   17   58 1
    39   18   59 1
    40   19   20 1
    41   19   33 1
    42   19   21 1
    43   21   22 1
    44   21   23 1
    45   21   35 1
    46   23   24 1
    47   23   25 1
    48   23   34 1
    49   25   30 ar
    50   25   26 ar
    51   26   27 ar
    52   26   33 1
    53   27   28 ar
    54   27   60 1
    55   28   29 ar
    56   28   61 1
    57   29   30 ar
    58   29   32 1
    59   30   31 1
    60   32   62 1
    61   34   63 1
    62   34   64 1
    63   34   65 1
    64   35   40 ar
    65   35   36 ar
    66   36   37 ar
    67   36   66 1
    68   37   38 ar
    69   37   67 1
    70   38   39 ar
    71   38   41 1
    72   39   40 ar
    73   39   68 1
    74   40   69 1
    75   41   70 1
