@<TRIPOS>MOLECULE
CHEMBL64692
   68    72     0     0     0
SMALL
USER_CHARGES

@<TRIPOS>ATOM
      1 C1          0.1583    1.0180    0.0217 C.ar      1 <0>        -0.0191
      2 C2          1.3135    1.7671    0.0006 C.ar      1 <0>        -0.1527
      3 C3          2.5524    1.1393    0.0579 C.ar      1 <0>         0.1471
      4 C4          2.6306   -0.2463    0.1363 C.ar      1 <0>        -0.2157
      5 C5          1.4801   -1.0026    0.1578 C.ar      1 <0>        -0.0193
      6 C6          0.2326   -0.3753    0.1008 C.ar      1 <0>        -0.1837
      7 C7         -1.0036   -1.1824    0.1242 C.2       1 <0>         0.4609
      8 O1         -2.0885   -0.6327    0.1780 O.2       1 <0>        -0.4292
      9 C8         -0.9245   -2.6467    0.0825 C.2       1 <0>        -0.1878
     10 C9         -0.9279   -3.4397    1.3152 C.ar      1 <0>        -0.0690
     11 C10        -0.9991   -3.0228    2.6582 C.ar      1 <0>        -0.0639
     12 C11        -0.9881   -3.9354    3.6690 C.ar      1 <0>        -0.1334
     13 C12        -0.9062   -5.3005    3.4094 C.ar      1 <0>         0.1307
     14 C13        -0.8348   -5.7434    2.0980 C.ar      1 <0>        -0.0943
     15 C14        -0.8461   -4.8234    1.0712 C.ar      1 <0>        -0.1311
     16 S1         -0.7754   -4.9376   -0.6951 S.3       1 <0>         0.1901
     17 C15        -0.8514   -3.3122   -1.1015 C.2       1 <0>        -0.1433
     18 C16        -0.8393   -2.7153   -2.4852 C.3       1 <0>        -0.0124
     19 C17        -2.1000   -3.1461   -3.2374 C.3       1 <0>        -0.1119
     20 C18        -2.0878   -2.5401   -4.6423 C.3       1 <0>        -0.1127
     21 C19        -0.8507   -3.0295   -5.3980 C.3       1 <0>         0.1024
     22 C20         0.4100   -2.5987   -4.6457 C.3       1 <0>        -0.1503
     23 C21         0.3978   -3.2047   -3.2409 C.3       1 <0>        -0.1095
     24 O2         -0.8393   -2.4635   -6.7101 O.3       1 <0>        -0.5661
     25 O3         -0.8959   -6.1929    4.4348 O.3       1 <0>        -0.4920
     26 O4          3.6887    1.8812    0.0369 O.3       1 <0>        -0.3242
     27 C22         4.9277    1.1721    0.0988 C.3       1 <0>         0.0232
     28 C23         6.0881    2.1687    0.0640 C.3       1 <0>        -0.0010
     29 N1          6.0370    3.0216    1.2590 N.4       1 <0>        -0.3847
     30 C24         7.0517    4.0765    1.1491 C.3       1 <0>        -0.0071
     31 C25         6.9489    5.0157    2.3527 C.3       1 <0>        -0.1468
     32 C26         7.1789    4.2160    3.6384 C.3       1 <0>        -0.1391
     33 C27         6.1620    3.0730    3.7057 C.3       1 <0>        -0.1455
     34 C28         6.2939    2.2057    2.4519 C.3       1 <0>        -0.0134
     35 H1         -0.8039    1.5068   -0.0184 H         1 <0>         0.1477
     36 H2          1.2569    2.8439   -0.0609 H         1 <0>         0.1415
     37 H3          3.5951   -0.7303    0.1799 H         1 <0>         0.1344
     38 H4          1.5418   -2.0791    0.2183 H         1 <0>         0.1374
     39 H5         -1.0627   -1.9697    2.8889 H         1 <0>         0.1257
     40 H6         -1.0436   -3.5934    4.6919 H         1 <0>         0.1374
     41 H7         -0.7709   -6.7997    1.8824 H         1 <0>         0.1425
     42 H8         -0.8137   -1.6281   -2.4117 H         1 <0>         0.0887
     43 H9         -2.1257   -4.2333   -3.3109 H         1 <0>         0.0742
     44 H10        -2.9813   -2.7974   -2.6990 H         1 <0>         0.0784
     45 H11        -2.9859   -2.8470   -5.1782 H         1 <0>         0.0788
     46 H12        -2.0621   -1.4529   -4.5688 H         1 <0>         0.0719
     47 H13        -0.8764   -4.1167   -5.4715 H         1 <0>         0.0584
     48 H14         1.2913   -2.9474   -5.1841 H         1 <0>         0.0711
     49 H15         0.4356   -1.5115   -4.5723 H         1 <0>         0.0719
     50 H16         1.2959   -2.8978   -2.7050 H         1 <0>         0.0702
     51 H17         0.3721   -4.2919   -3.3144 H         1 <0>         0.0734
     52 H18        -0.0811   -2.7312   -7.2473 H         1 <0>         0.3796
     53 H19        -1.7745   -6.4979    4.6996 H         1 <0>         0.3990
     54 H20         4.9710    0.5962    1.0233 H         1 <0>         0.0890
     55 H21         5.0029    0.4970   -0.7537 H         1 <0>         0.1121
     56 H22         7.0330    1.6257    0.0453 H         1 <0>         0.1503
     57 H23         6.0077    2.7889   -0.8287 H         1 <0>         0.1435
     58 H24         8.0435    3.6250    1.1248 H         1 <0>         0.1295
     59 H25         6.8886    4.6427    0.2320 H         1 <0>         0.1314
     60 H26         7.7042    5.7972    2.2702 H         1 <0>         0.1134
     61 H27         5.9575    5.4680    2.3779 H         1 <0>         0.0881
     62 H28         8.1888    3.8059    3.6368 H         1 <0>         0.0823
     63 H29         7.0508    4.8691    4.5017 H         1 <0>         0.0950
     64 H30         6.3549    2.4658    4.5901 H         1 <0>         0.1126
     65 H31         5.1543    3.4849    3.7589 H         1 <0>         0.0879
     66 H32         5.5715    1.3908    2.4966 H         1 <0>         0.1269
     67 H33         7.3019    1.7941    2.3998 H         1 <0>         0.1308
     68 H34         5.1231    3.4430    1.3314 H         1 <0>         0.4293
@<TRIPOS>BOND
     1    1    6 ar
     2    1    2 ar
     3    1   35 1
     4    2    3 ar
     5    2   36 1
     6    3    4 ar
     7    3   26 1
     8    4    5 ar
     9    4   37 1
    10    5    6 ar
    11    5   38 1
    12    6    7 1
    13    7    8 2
    14    7    9 1
    15    9   17 2
    16    9   10 1
    17   10   15 ar
    18   10   11 ar
    19   11   12 ar
    20   11   39 1
    21   12   13 ar
    22   12   40 1
    23   13   14 ar
    24   13   25 1
    25   14   15 ar
    26   14   41 1
    27   15   16 1
    28   16   17 1
    29   17   18 1
    30   18   23 1
    31   18   19 1
    32   18   42 1
    33   19   20 1
    34   19   43 1
    35   19   44 1
    36   20   21 1
    37   20   45 1
    38   20   46 1
    39   21   22 1
    40   21   24 1
    41   21   47 1
    42   22   23 1
    43   22   48 1
    44   22   49 1
    45   23   50 1
    46   23   51 1
    47   24   52 1
    48   25   53 1
    49   26   27 1
    50   27   28 1
    51   27   54 1
    52   27   55 1
    53   28   29 1
    54   28   56 1
    55   28   57 1
    56   29   34 1
    57   29   30 1
    58   29   68 1
    59   30   31 1
    60   30   58 1
    61   30   59 1
    62   31   32 1
    63   31   60 1
    64   31   61 1
    65   32   33 1
    66   32   62 1
    67   32   63 1
    68   33   34 1
    69   33   64 1
    70   33   65 1
    71   34   66 1
    72   34   67 1
