@<TRIPOS>MOLECULE
CHEMBL235828
   41    44     0     0     0
SMALL
USER_CHARGES

@<TRIPOS>ATOM
      1 C1         -0.0167    1.3784    0.0096 C.ar      1 <0>        -0.0872
      2 C2          1.1695    2.0865    0.0021 C.ar      1 <0>        -0.1444
      3 C3          2.3802    1.4093   -0.0131 C.ar      1 <0>         0.1142
      4 C4          2.3963    0.0221   -0.0206 C.ar      1 <0>        -0.1460
      5 C5          1.2074   -0.6814   -0.0130 C.ar      1 <0>        -0.0754
      6 C6          0.0021   -0.0041    0.0020 C.ar      1 <0>        -0.0988
      7 C7         -1.2934   -0.7740    0.0107 C.3       1 <0>         0.1427
      8 H1         -2.0894   -0.1608   -0.4117 H         1 <0>         0.0891
      9 C8         -1.6530   -1.1725    1.4547 C.3       1 <0>        -0.1015
     10 H2         -1.6705   -0.2945    2.1004 H         1 <0>         0.1045
     11 C9         -0.5953   -2.1732    1.9376 C.3       1 <0>        -0.1685
     12 C10        -1.0596   -2.8015    3.2304 C.2       1 <0>         0.3645
     13 O1         -0.3526   -2.8059    4.2094 O.2       1 <0>        -0.4527
     14 C11        -2.4385   -3.4251    3.2613 C.3       1 <0>        -0.1711
     15 C12        -3.4423   -2.3784    2.7686 C.3       1 <0>        -0.1021
     16 C13        -3.0299   -1.8316    1.4110 C.3       1 <0>        -0.0465
     17 H3         -3.7537   -1.0739    1.1109 H         1 <0>         0.0921
     18 C14        -3.0535   -2.9073    0.3622 C.ar      1 <0>        -0.1369
     19 C15        -4.0213   -3.8946    0.4250 C.ar      1 <0>        -0.1089
     20 C16        -4.0638   -4.8932   -0.5345 C.ar      1 <0>         0.0754
     21 C17        -3.1328   -4.9028   -1.5628 C.ar      1 <0>        -0.1098
     22 C18        -2.1670   -3.9199   -1.6261 C.ar      1 <0>        -0.1291
     23 C19        -2.1208   -2.9178   -0.6629 C.ar      1 <0>         0.1251
     24 O2         -1.1487   -1.9720   -0.7541 O.3       1 <0>        -0.3047
     25 O3         -5.0163   -5.8615   -0.4686 O.3       1 <0>        -0.4967
     26 O4          3.5484    2.1036   -0.0209 O.3       1 <0>        -0.4994
     27 H4         -0.9594    1.9052    0.0259 H         1 <0>         0.1302
     28 H5          1.1543    3.1664    0.0076 H         1 <0>         0.1329
     29 H6          3.3375   -0.5074   -0.0328 H         1 <0>         0.1319
     30 H7          1.2194   -1.7613   -0.0189 H         1 <0>         0.1324
     31 H8         -0.4574   -2.9491    1.1845 H         1 <0>         0.1051
     32 H9          0.3485   -1.6538    2.1035 H         1 <0>         0.0955
     33 H10        -2.4636   -4.2964    2.6068 H         1 <0>         0.1009
     34 H11        -2.6860   -3.7218    4.2805 H         1 <0>         0.0928
     35 H12        -4.4291   -2.8344    2.6888 H         1 <0>         0.0841
     36 H13        -3.4848   -1.5555    3.4822 H         1 <0>         0.0763
     37 H14        -4.7462   -3.8868    1.2255 H         1 <0>         0.1346
     38 H15        -3.1639   -5.6793   -2.3129 H         1 <0>         0.1361
     39 H16        -1.4426   -3.9291   -2.4271 H         1 <0>         0.1365
     40 H17        -5.8309   -5.6448   -0.9425 H         1 <0>         0.3892
     41 H18         3.8951    2.3001    0.8601 H         1 <0>         0.3937
@<TRIPOS>BOND
     1    1    6 ar
     2    1    2 ar
     3    1   27 1
     4    2    3 ar
     5    2   28 1
     6    3    4 ar
     7    3   26 1
     8    4    5 ar
     9    4   29 1
    10    5    6 ar
    11    5   30 1
    12    6    7 1
    13    7    8 1
    14    7   24 1
    15    7    9 1
    16    9   10 1
    17    9   16 1
    18    9   11 1
    19   11   12 1
    20   11   31 1
    21   11   32 1
    22   12   13 2
    23   12   14 1
    24   14   15 1
    25   14   33 1
    26   14   34 1
    27   15   16 1
    28   15   35 1
    29   15   36 1
    30   16   17 1
    31   16   18 1
    32   18   23 ar
    33   18   19 ar
    34   19   20 ar
    35   19   37 1
    36   20   21 ar
    37   20   25 1
    38   21   22 ar
    39   21   38 1
    40   22   23 ar
    41   22   39 1
    42   23   24 1
    43   25   40 1
    44   26   41 1
