@<TRIPOS>MOLECULE
CHEMBL362425
   64    69     0     0     0
SMALL
USER_CHARGES

@<TRIPOS>ATOM
      1 C1         -1.4946   -0.7819    2.4959 C.ar      1 <0>        -0.0733
      2 C2         -1.2375   -1.0423    3.8238 C.ar      1 <0>        -0.1465
      3 C3         -1.1220   -2.3542    4.2671 C.ar      1 <0>         0.1241
      4 C4         -1.2652   -3.4090    3.3739 C.ar      1 <0>        -0.1388
      5 C5         -1.5224   -3.1582    2.0442 C.ar      1 <0>        -0.0716
      6 C6         -1.6394   -1.8399    1.5936 C.ar      1 <0>        -0.0375
      7 C7         -1.9146   -1.5664    0.1713 C.2       1 <0>        -0.0546
      8 C8         -1.3204   -2.1376   -0.9463 C.2       1 <0>        -0.1541
      9 C9         -1.7732   -1.6929   -2.2668 C.ar      1 <0>        -0.0717
     10 C10        -1.3225   -2.1238   -3.5351 C.ar      1 <0>        -0.0572
     11 C11        -1.8556   -1.6007   -4.6836 C.ar      1 <0>        -0.1382
     12 C12        -2.8547   -0.6324   -4.6387 C.ar      1 <0>         0.1343
     13 C13        -3.3173   -0.1904   -3.4098 C.ar      1 <0>        -0.1022
     14 C14        -2.7837   -0.7133   -2.2506 C.ar      1 <0>        -0.1018
     15 S1         -3.0951   -0.4290   -0.5269 S.3       1 <0>         0.0845
     16 O1         -3.3710   -0.1250   -5.7893 O.3       1 <0>        -0.4913
     17 C15        -0.2745   -3.1514   -0.8094 C.2       1 <0>         0.4653
     18 O2         -0.5631   -4.3341   -0.8536 O.2       1 <0>        -0.4486
     19 C16         1.1306   -2.7412   -0.6177 C.ar      1 <0>        -0.2257
     20 C17         1.4788   -1.3884   -0.6714 C.ar      1 <0>        -0.0076
     21 C18         2.7895   -1.0090   -0.4919 C.ar      1 <0>        -0.2133
     22 C19         3.7681   -1.9709   -0.2570 C.ar      1 <0>         0.2563
     23 C20         3.4245   -3.3190   -0.2030 C.ar      1 <0>        -0.2138
     24 C21         2.1148   -3.7042   -0.3764 C.ar      1 <0>        -0.0034
     25 N1          5.0921   -1.5844   -0.0764 N.pl3     1 <0>        -0.6193
     26 C22         5.4525   -0.1615   -0.0033 C.3       1 <0>         0.1023
     27 C23         6.2133    0.0848    1.3054 C.3       1 <0>         0.0805
     28 N2          7.2766   -0.9224    1.4271 N.am      1 <0>        -0.6050
     29 C24         6.9162   -2.3453    1.3541 C.3       1 <0>         0.0959
     30 C25         6.1546   -2.5916    0.0510 C.3       1 <0>         0.1026
     31 C26         8.5594   -0.5478    1.6022 C.2       1 <0>         0.5629
     32 O3          9.4418   -1.3833    1.6018 O.2       1 <0>        -0.5206
     33 C27         8.8937    0.8825    1.7951 C.ar      1 <0>        -0.0839
     34 C28         8.0990    1.7038    2.6006 C.ar      1 <0>        -0.1492
     35 C29         8.4478    3.0318    2.7533 C.ar      1 <0>         0.1008
     36 N3          9.5118    3.5256    2.1520 N.ar      1 <0>        -0.4685
     37 C30        10.2876    2.7864    1.3843 C.ar      1 <0>         0.1037
     38 C31        10.0160    1.4472    1.1814 C.ar      1 <0>        -0.1214
     39 O4         -0.8681   -2.6061    5.5770 O.3       1 <0>        -0.4974
     40 H1         -1.5885    0.2379    2.1530 H         1 <0>         0.1335
     41 H2         -1.1251   -0.2255    4.5214 H         1 <0>         0.1361
     42 H3         -1.1744   -4.4270    3.7228 H         1 <0>         0.1362
     43 H4         -1.6332   -3.9786    1.3506 H         1 <0>         0.1342
     44 H5         -0.5483   -2.8740   -3.5997 H         1 <0>         0.1296
     45 H6         -1.4941   -1.9456   -5.6411 H         1 <0>         0.1382
     46 H7         -4.0918    0.5607   -3.3598 H         1 <0>         0.1408
     47 H8         -4.1353   -0.6125   -6.1260 H         1 <0>         0.3969
     48 H9          0.7202   -0.6417   -0.8539 H         1 <0>         0.1261
     49 H10         3.0592    0.0359   -0.5336 H         1 <0>         0.1292
     50 H11         4.1860   -4.0629   -0.0209 H         1 <0>         0.1308
     51 H12         1.8482   -4.7497   -0.3303 H         1 <0>         0.1335
     52 H13         6.0874    0.0990   -0.8501 H         1 <0>         0.0728
     53 H14         4.5479    0.4464   -0.0205 H         1 <0>         0.1017
     54 H15         6.6537    1.0817    1.2905 H         1 <0>         0.1055
     55 H16         5.5283   -0.0027    2.1488 H         1 <0>         0.0816
     56 H17         7.8208   -2.9531    1.3713 H         1 <0>         0.1083
     57 H18         6.2813   -2.6057    2.2009 H         1 <0>         0.0782
     58 H19         5.7136   -3.5883    0.0696 H         1 <0>         0.1020
     59 H20         6.8407   -2.5082   -0.7919 H         1 <0>         0.0737
     60 H21         7.2255    1.3061    3.0957 H         1 <0>         0.1432
     61 H22         7.8403    3.6742    3.3734 H         1 <0>         0.1648
     62 H23        11.1494    3.2329    0.9107 H         1 <0>         0.1660
     63 H24        10.6585    0.8464    0.5548 H         1 <0>         0.1451
     64 H25        -1.6581   -2.6244    6.1344 H         1 <0>         0.3953
@<TRIPOS>BOND
     1    1    6 ar
     2    1    2 ar
     3    1   40 1
     4    2    3 ar
     5    2   41 1
     6    3    4 ar
     7    3   39 1
     8    4    5 ar
     9    4   42 1
    10    5    6 ar
    11    5   43 1
    12    6    7 1
    13    7   15 1
    14    7    8 2
    15    8    9 1
    16    8   17 1
    17    9   14 ar
    18    9   10 ar
    19   10   11 ar
    20   10   44 1
    21   11   12 ar
    22   11   45 1
    23   12   13 ar
    24   12   16 1
    25   13   14 ar
    26   13   46 1
    27   14   15 1
    28   16   47 1
    29   17   18 2
    30   17   19 1
    31   19   24 ar
    32   19   20 ar
    33   20   21 ar
    34   20   48 1
    35   21   22 ar
    36   21   49 1
    37   22   23 ar
    38   22   25 1
    39   23   24 ar
    40   23   50 1
    41   24   51 1
    42   25   30 1
    43   25   26 1
    44   26   27 1
    45   26   52 1
    46   26   53 1
    47   27   28 1
    48   27   54 1
    49   27   55 1
    50   28   29 1
    51   28   31 am
    52   29   30 1
    53   29   56 1
    54   29   57 1
    55   30   58 1
    56   30   59 1
    57   31   32 2
    58   31   33 1
    59   33   38 ar
    60   33   34 ar
    61   34   35 ar
    62   34   60 1
    63   35   36 ar
    64   35   61 1
    65   36   37 ar
    66   37   38 ar
    67   37   62 1
    68   38   63 1
    69   39   64 1
