@<TRIPOS>MOLECULE
CHEMBL241303
   79    83     0     0     0
SMALL
USER_CHARGES

@<TRIPOS>ATOM
      1 C1         -0.5723    0.8910    0.1960 C.3       1 <0>        -0.1657
      2 C2         -0.4427   -0.6335    0.1942 C.3       1 <0>         0.1423
      3 H1          0.0683   -0.9536   -0.7139 H         1 <0>         0.0893
      4 C3         -1.8359   -1.2639    0.2446 C.3       1 <0>        -0.1228
      5 C4         -1.7129   -2.7836    0.1172 C.3       1 <0>        -0.0772
      6 C5         -3.0852   -3.4045    0.1668 C.ar      1 <0>        -0.0942
      7 C6         -3.6307   -3.7767    1.3816 C.ar      1 <0>        -0.1009
      8 C7         -4.8883   -4.3465    1.4298 C.ar      1 <0>        -0.1429
      9 C8         -5.6041   -4.5447    0.2580 C.ar      1 <0>         0.1024
     10 C9         -5.0547   -4.1700   -0.9595 C.ar      1 <0>        -0.1421
     11 C10        -3.7989   -3.5958   -1.0018 C.ar      1 <0>        -0.1003
     12 O1         -6.8412   -5.1055    0.3027 O.3       1 <0>        -0.5004
     13 N1          0.3287   -1.0595    1.3645 N.am      1 <0>        -0.7277
     14 C11         1.6755   -1.0741    1.3151 C.2       1 <0>         0.5128
     15 O2          2.2488   -0.7346    0.3017 O.2       1 <0>        -0.5253
     16 C12         2.4690   -1.5122    2.5190 C.3       1 <0>        -0.0726
     17 C13         3.9410   -1.4375    2.2048 C.2       1 <0>        -0.1245
     18 C14         4.7635   -2.5019    1.6309 C.ar      1 <0>        -0.1076
     19 C15         4.5001   -3.8125    1.2208 C.ar      1 <0>        -0.0226
     20 C16         5.5075   -4.5804    0.7116 C.ar      1 <0>        -0.2231
     21 C17         6.7978   -4.0679    0.5971 C.ar      1 <0>         0.1307
     22 C18         7.0788   -2.7749    0.9974 C.ar      1 <0>        -0.1561
     23 C19         6.0653   -1.9776    1.5181 C.ar      1 <0>         0.1414
     24 N2          6.0318   -0.6845    1.9915 N.pl3     1 <0>        -0.5829
     25 H2          6.7931   -0.0847    2.0305 H         1 <0>         0.4195
     26 C20         4.7533   -0.3690    2.3949 C.2       1 <0>         0.1433
     27 C21         4.3323    0.9339    2.9534 C.ar      1 <0>        -0.0468
     28 C22         3.1503    1.5342    2.5172 C.ar      1 <0>        -0.0926
     29 C23         2.7631    2.7499    3.0422 C.ar      1 <0>        -0.1161
     30 C24         3.5438    3.3738    3.9991 C.ar      1 <0>        -0.1045
     31 C25         4.7167    2.7840    4.4358 C.ar      1 <0>        -0.1170
     32 C26         5.1122    1.5658    3.9230 C.ar      1 <0>        -0.1047
     33 O3          7.7892   -4.8461    0.0879 O.3       1 <0>        -0.3292
     34 C27         7.4344   -6.1729   -0.3069 C.3       1 <0>         0.0280
     35 C28         8.6710   -6.8909   -0.8512 C.3       1 <0>        -0.0013
     36 N3          9.6681   -7.0283    0.2189 N.4       1 <0>        -0.3839
     37 C29        10.9107   -7.5747   -0.3395 C.3       1 <0>        -0.0071
     38 C30        11.9786   -7.6441    0.7542 C.3       1 <0>        -0.1467
     39 C31        11.4842   -8.5495    1.8860 C.3       1 <0>        -0.1389
     40 C32        10.1499   -8.0117    2.4109 C.3       1 <0>        -0.1453
     41 C33         9.1498   -7.9287    1.2558 C.3       1 <0>        -0.0132
     42 H3          0.4202    1.3401    0.1601 H         1 <0>         0.0604
     43 H4         -1.1462    1.2079   -0.6747 H         1 <0>         0.0674
     44 H5         -1.0833    1.2110    1.1041 H         1 <0>         0.0586
     45 H6         -2.3126   -1.0162    1.1930 H         1 <0>         0.0722
     46 H7         -2.4392   -0.8780   -0.5771 H         1 <0>         0.0825
     47 H8         -1.2362   -3.0313   -0.8312 H         1 <0>         0.0732
     48 H9         -1.1096   -3.1695    0.9388 H         1 <0>         0.0724
     49 H10        -3.0731   -3.6222    2.2935 H         1 <0>         0.1250
     50 H11        -5.3137   -4.6377    2.3788 H         1 <0>         0.1288
     51 H12        -5.6099   -4.3233   -1.8731 H         1 <0>         0.1292
     52 H13        -3.3725   -3.2999   -1.9490 H         1 <0>         0.1261
     53 H14        -7.5597   -4.4657    0.4002 H         1 <0>         0.3928
     54 H15        -0.1298   -1.3310    2.1750 H         1 <0>         0.4000
     55 H16         2.2435   -0.8574    3.3607 H         1 <0>         0.1035
     56 H17         2.2038   -2.5379    2.7753 H         1 <0>         0.1023
     57 H18         3.5022   -4.2164    1.3069 H         1 <0>         0.1282
     58 H19         5.3026   -5.5926    0.3955 H         1 <0>         0.1269
     59 H20         8.0819   -2.3853    0.9061 H         1 <0>         0.1296
     60 H21         2.5402    1.0484    1.7701 H         1 <0>         0.1311
     61 H22         1.8488    3.2157    2.7053 H         1 <0>         0.1285
     62 H23         3.2364    4.3255    4.4067 H         1 <0>         0.1281
     63 H24         5.3218    3.2763    5.1827 H         1 <0>         0.1286
     64 H25         6.0257    1.1042    4.2679 H         1 <0>         0.1215
     65 H26         7.0480   -6.7173    0.5547 H         1 <0>         0.0863
     66 H27         6.6692   -6.1290   -1.0819 H         1 <0>         0.1095
     67 H28         8.3875   -7.8793   -1.2128 H         1 <0>         0.1484
     68 H29         9.0957   -6.3120   -1.6713 H         1 <0>         0.1420
     69 H30        10.7243   -8.5756   -0.7288 H         1 <0>         0.1289
     70 H31        11.2596   -6.9309   -1.1470 H         1 <0>         0.1307
     71 H32        12.8999   -8.0517    0.3381 H         1 <0>         0.1125
     72 H33        12.1659   -6.6435    1.1440 H         1 <0>         0.0876
     73 H34        11.3456   -9.5625    1.5082 H         1 <0>         0.0819
     74 H35        12.2169   -8.5573    2.6930 H         1 <0>         0.0941
     75 H36         9.7641   -8.6820    3.1790 H         1 <0>         0.1120
     76 H37        10.2993   -7.0188    2.8351 H         1 <0>         0.0877
     77 H38         8.1986   -7.5462    1.6261 H         1 <0>         0.1285
     78 H39         9.0010   -8.9220    0.8326 H         1 <0>         0.1299
     79 H40         9.8531   -6.1225    0.6231 H         1 <0>         0.4295
@<TRIPOS>BOND
     1    1    2 1
     2    1   42 1
     3    1   43 1
     4    1   44 1
     5    2    3 1
     6    2    4 1
     7    2   13 1
     8    4    5 1
     9    4   45 1
    10    4   46 1
    11    5    6 1
    12    5   47 1
    13    5   48 1
    14    6   11 ar
    15    6    7 ar
    16    7    8 ar
    17    7   49 1
    18    8    9 ar
    19    8   50 1
    20    9   10 ar
    21    9   12 1
    22   10   11 ar
    23   10   51 1
    24   11   52 1
    25   12   53 1
    26   13   14 am
    27   13   54 1
    28   14   15 2
    29   14   16 1
    30   16   17 1
    31   16   55 1
    32   16   56 1
    33   17   26 2
    34   17   18 1
    35   18   23 ar
    36   18   19 ar
    37   19   20 ar
    38   19   57 1
    39   20   21 ar
    40   20   58 1
    41   21   22 ar
    42   21   33 1
    43   22   23 ar
    44   22   59 1
    45   23   24 1
    46   24   25 1
    47   24   26 1
    48   26   27 1
    49   27   32 ar
    50   27   28 ar
    51   28   29 ar
    52   28   60 1
    53   29   30 ar
    54   29   61 1
    55   30   31 ar
    56   30   62 1
    57   31   32 ar
    58   31   63 1
    59   32   64 1
    60   33   34 1
    61   34   35 1
    62   34   65 1
    63   34   66 1
    64   35   36 1
    65   35   67 1
    66   35   68 1
    67   36   41 1
    68   36   37 1
    69   36   79 1
    70   37   38 1
    71   37   69 1
    72   37   70 1
    73   38   39 1
    74   38   71 1
    75   38   72 1
    76   39   40 1
    77   39   73 1
    78   39   74 1
    79   40   41 1
    80   40   75 1
    81   40   76 1
    82   41   77 1
    83   41   78 1
