@<TRIPOS>MOLECULE
CHEMBL379008
   43    46     0     0     0
SMALL
USER_CHARGES

@<TRIPOS>ATOM
      1 C1          0.4566    1.6758    0.2638 C.3       1 <0>        -0.1539
      2 C2          0.4213    0.1491    0.1702 C.3       1 <0>        -0.1262
      3 C3          1.0530   -0.4536    1.4267 C.3       1 <0>        -0.1145
      4 C4          1.0177   -1.9804    1.3330 C.3       1 <0>        -0.0733
      5 H1          1.4904   -2.3142    0.4094 H         1 <0>         0.0803
      6 C5         -0.4408   -2.4909    1.4067 C.3       1 <0>        -0.1092
      7 C6         -0.5199   -3.3706    2.6812 C.3       1 <0>        -0.1406
      8 H2         -1.5041   -3.3480    3.1491 H         1 <0>         0.1125
      9 C7          0.5959   -2.7741    3.5928 C.3       1 <0>        -0.1009
     10 C8          1.7138   -2.6039    2.5425 C.3       1 <0>        -0.0451
     11 C9          2.9473   -1.8812    3.0301 C.3       1 <0>        -0.0777
     12 C10         4.1050   -2.7269    2.5660 C.ar      1 <0>        -0.0506
     13 C11         5.4538   -2.4477    2.6044 C.ar      1 <0>        -0.1366
     14 C12         6.3218   -3.4077    2.0788 C.ar      1 <0>         0.1287
     15 C13         5.8517   -4.5959    1.5374 C.ar      1 <0>        -0.1578
     16 C14         4.5042   -4.8962    1.5002 C.ar      1 <0>        -0.0591
     17 C15         3.6176   -3.9436    2.0356 C.ar      1 <0>        -0.0942
     18 C16         2.1773   -4.0115    2.1838 C.2       1 <0>         0.0078
     19 C17         1.2998   -5.0381    2.0679 C.2       1 <0>        -0.1876
     20 C18        -0.0924   -4.7716    2.2885 C.2       1 <0>         0.3968
     21 O1         -0.9238   -5.6499    2.1755 O.2       1 <0>        -0.4567
     22 C19         1.7689   -6.4245    1.7088 C.3       1 <0>        -0.1082
     23 O2          7.6582   -3.1724    2.0978 O.3       1 <0>        -0.4994
     24 H3          1.4904    2.0109    0.3473 H         1 <0>         0.0536
     25 H4          0.0066    2.1052   -0.6313 H         1 <0>         0.0542
     26 H5         -0.1021    1.9990    1.1422 H         1 <0>         0.0541
     27 H6         -0.6125   -0.1860    0.0868 H         1 <0>         0.0637
     28 H7          0.9800   -0.1741   -0.7081 H         1 <0>         0.0613
     29 H8          2.0868   -0.1185    1.5101 H         1 <0>         0.0705
     30 H9          0.4943   -0.1305    2.3050 H         1 <0>         0.0687
     31 H10        -1.1296   -1.6500    1.4874 H         1 <0>         0.0853
     32 H11        -0.6755   -3.0862    0.5243 H         1 <0>         0.0697
     33 H12         0.2955   -1.8146    4.0138 H         1 <0>         0.0887
     34 H13         0.8883   -3.4750    4.3747 H         1 <0>         0.0786
     35 H14         3.0034   -0.8868    2.5873 H         1 <0>         0.1007
     36 H15         2.9407   -1.8124    4.1179 H         1 <0>         0.0945
     37 H16         5.8248   -1.5243    3.0241 H         1 <0>         0.1405
     38 H17         6.5591   -5.3055    1.1343 H         1 <0>         0.1317
     39 H18         4.1459   -5.8234    1.0780 H         1 <0>         0.1393
     40 H19         2.5390   -6.7411    2.4123 H         1 <0>         0.0699
     41 H20         0.9277   -7.1162    1.7554 H         1 <0>         0.0755
     42 H21         2.1793   -6.4190    0.6991 H         1 <0>         0.0698
     43 H22         8.1018   -3.4879    2.8970 H         1 <0>         0.3949
@<TRIPOS>BOND
     1    1    2 1
     2    1   24 1
     3    1   25 1
     4    1   26 1
     5    2    3 1
     6    2   27 1
     7    2   28 1
     8    3    4 1
     9    3   29 1
    10    3   30 1
    11    4    5 1
    12    4   10 1
    13    4    6 1
    14    6    7 1
    15    6   31 1
    16    6   32 1
    17    7    8 1
    18    7   20 1
    19    7    9 1
    20    9   10 1
    21    9   33 1
    22    9   34 1
    23   10   18 1
    24   10   11 1
    25   11   12 1
    26   11   35 1
    27   11   36 1
    28   12   17 ar
    29   12   13 ar
    30   13   14 ar
    31   13   37 1
    32   14   15 ar
    33   14   23 1
    34   15   16 ar
    35   15   38 1
    36   16   17 ar
    37   16   39 1
    38   17   18 1
    39   18   19 2
    40   19   20 1
    41   19   22 1
    42   20   21 2
    43   22   40 1
    44   22   41 1
    45   22   42 1
    46   23   43 1
