@<TRIPOS>MOLECULE
CHEMBL71668
   91    95     0     0     0
SMALL
USER_CHARGES

@<TRIPOS>ATOM
      1 C1          0.4329    2.1660   -0.1706 C.3       1 <0>        -0.1270
      2 C2          0.3484    0.6620   -0.1269 C.ar      1 <0>        -0.0247
      3 C3          0.2961   -0.0619   -1.3034 C.ar      1 <0>        -0.1425
      4 C4          0.2186   -1.4414   -1.2632 C.ar      1 <0>        -0.0096
      5 C5          0.1940   -2.0972   -0.0466 C.ar      1 <0>        -0.7102
      6 C6          0.2472   -1.3734    1.1299 C.ar      1 <0>        -0.0209
      7 C7          0.3290    0.0059    1.0897 C.ar      1 <0>        -0.1426
      8 S1          0.0941   -3.8556    0.0046 S.o2      1 <0>         2.6987
      9 O1         -0.4637   -4.1942    1.2669 O.2       1 <0>        -0.9674
     10 O2         -0.4940   -4.2649   -1.2226 O.2       1 <0>        -0.9342
     11 O3          1.5201   -4.3876    0.0024 O.3       1 <0>        -0.7279
     12 C8          2.1980   -4.2386    1.2515 C.3       1 <0>         0.0603
     13 C9          3.6147   -4.8043    1.1336 C.3       1 <0>        -0.1187
     14 C10         4.3405   -4.6447    2.4709 C.3       1 <0>        -0.1219
     15 C11         5.7572   -5.2104    2.3530 C.3       1 <0>        -0.1195
     16 C12         6.4830   -5.0508    3.6904 C.3       1 <0>        -0.1205
     17 C13         7.8997   -5.6165    3.5725 C.3       1 <0>        -0.1207
     18 C14         8.6255   -5.4569    4.9099 C.3       1 <0>        -0.1193
     19 C15        10.0422   -6.0227    4.7920 C.3       1 <0>        -0.1188
     20 C16        10.7680   -5.8631    6.1294 C.3       1 <0>        -0.1207
     21 C17        12.1847   -6.4288    6.0115 C.3       1 <0>        -0.1215
     22 C18        12.9101   -6.2693    7.3481 C.3       1 <0>        -0.0681
     23 H1         12.9030   -5.1850    7.5852 H         1 <0>         0.0625
     24 C19        12.1525   -6.9786    8.4704 C.3       1 <0>        -0.0981
     25 C20        12.4592   -8.4468    8.5694 C.3       1 <0>        -0.0482
     26 C21        12.0991   -9.1123    9.9111 C.3       1 <0>         0.1040
     27 H2         12.3462   -8.4466   10.7312 H         1 <0>         0.0578
     28 C22        12.9870  -10.3820    9.9412 C.3       1 <0>        -0.1570
     29 C23        14.0887  -10.1760    8.8637 C.3       1 <0>        -0.1106
     30 C24        13.9889   -8.6849    8.5400 C.3       1 <0>        -0.0798
     31 C25        14.5216   -8.2102    7.2125 C.3       1 <0>        -0.0677
     32 C26        14.3627   -6.6830    7.2236 C.3       1 <0>        -0.0354
     33 C27        15.0463   -6.0666    6.0388 C.ar      1 <0>        -0.0686
     34 C28        14.7712   -4.7405    5.7280 C.ar      1 <0>        -0.0997
     35 C29        15.3550   -4.1325    4.6378 C.ar      1 <0>        -0.1480
     36 C30        16.2383   -4.8488    3.8432 C.ar      1 <0>         0.1023
     37 C31        16.5375   -6.1605    4.1669 C.ar      1 <0>        -0.1477
     38 C32        15.9590   -6.7655    5.2741 C.ar      1 <0>        -0.0588
     39 C33        16.3921   -8.1703    5.6052 C.3       1 <0>        -0.0822
     40 C34        16.0108   -8.5243    7.0441 C.3       1 <0>        -0.1147
     41 O4         16.8057   -4.2667    2.7548 O.3       1 <0>        -0.5000
     42 O5         10.7175   -9.4617    9.9225 O.3       1 <0>        -0.5567
     43 C35        11.7457   -9.2394    7.4735 C.3       1 <0>        -0.1301
     44 H3          1.4791    2.4706   -0.1961 H         1 <0>         0.0810
     45 H4         -0.0741    2.5325   -1.0632 H         1 <0>         0.0745
     46 H5         -0.0454    2.5827    0.7158 H         1 <0>         0.0743
     47 H6          0.3153    0.4505   -2.2539 H         1 <0>         0.1352
     48 H7          0.1770   -2.0069   -2.1824 H         1 <0>         0.1433
     49 H8          0.2277   -1.8858    2.0805 H         1 <0>         0.1414
     50 H9          0.3744    0.5712    2.0089 H         1 <0>         0.1347
     51 H10         2.2494   -3.1817    1.5131 H         1 <0>         0.0838
     52 H11         1.6544   -4.7787    2.0266 H         1 <0>         0.1039
     53 H12         3.5632   -5.8612    0.8719 H         1 <0>         0.0830
     54 H13         4.1582   -4.2641    0.3584 H         1 <0>         0.0805
     55 H14         4.3919   -3.5878    2.7326 H         1 <0>         0.0676
     56 H15         3.7969   -5.1849    3.2461 H         1 <0>         0.0703
     57 H16         5.7057   -6.2673    2.0914 H         1 <0>         0.0652
     58 H17         6.3008   -4.6703    1.5779 H         1 <0>         0.0641
     59 H18         6.5344   -3.9939    3.9521 H         1 <0>         0.0611
     60 H19         5.9394   -5.5910    4.4656 H         1 <0>         0.0624
     61 H20         7.8482   -6.6734    3.3109 H         1 <0>         0.0611
     62 H21         8.4433   -5.0764    2.7974 H         1 <0>         0.0603
     63 H22         8.6769   -4.4001    5.1715 H         1 <0>         0.0592
     64 H23         8.0819   -5.9971    5.6851 H         1 <0>         0.0605
     65 H24         9.9907   -7.0795    4.5304 H         1 <0>         0.0597
     66 H25        10.5858   -5.4825    4.0169 H         1 <0>         0.0587
     67 H26        10.8194   -4.8062    6.3910 H         1 <0>         0.0572
     68 H27        10.2244   -6.4032    6.9045 H         1 <0>         0.0660
     69 H28        12.1333   -7.4857    5.7499 H         1 <0>         0.0679
     70 H29        12.7283   -5.8886    5.2364 H         1 <0>         0.0663
     71 H30        12.3905   -6.4943    9.4296 H         1 <0>         0.0551
     72 H31        11.0700   -6.8483    8.3107 H         1 <0>         0.0749
     73 H32        13.4438  -10.4952   10.9245 H         1 <0>         0.0645
     74 H33        12.3908  -11.2626    9.7034 H         1 <0>         0.0735
     75 H34        15.0718  -10.4105    9.2832 H         1 <0>         0.0638
     76 H35        13.9035  -10.7929    7.9880 H         1 <0>         0.0710
     77 H36        14.4667   -8.1097    9.3493 H         1 <0>         0.0726
     78 H37        13.9778   -8.6408    6.3784 H         1 <0>         0.0830
     79 H38        14.8842   -6.3158    8.1179 H         1 <0>         0.0729
     80 H39        14.0961   -4.1725    6.3517 H         1 <0>         0.1242
     81 H40        15.1274   -3.1026    4.4041 H         1 <0>         0.1263
     82 H41        17.2257   -6.7194    3.5497 H         1 <0>         0.1253
     83 H42        15.9056   -8.8663    4.9246 H         1 <0>         0.0774
     84 H43        17.4723   -8.2469    5.4934 H         1 <0>         0.0754
     85 H44        16.5949   -7.9240    7.7388 H         1 <0>         0.0658
     86 H45        16.1867   -9.5836    7.2216 H         1 <0>         0.0720
     87 H46        17.6439   -3.8211    2.9391 H         1 <0>         0.3897
     88 H47        10.4257   -9.8857   10.7412 H         1 <0>         0.3744
     89 H48        12.1676   -8.9783    6.5030 H         1 <0>         0.0558
     90 H49        11.8781  -10.3065    7.6521 H         1 <0>         0.0541
     91 H50        10.6827   -8.9983    7.4843 H         1 <0>         0.0599
@<TRIPOS>BOND
     1    1    2 1
     2    1   44 1
     3    1   45 1
     4    1   46 1
     5    2    7 ar
     6    2    3 ar
     7    3    4 ar
     8    3   47 1
     9    4    5 ar
    10    4   48 1
    11    5    6 ar
    12    5    8 1
    13    6    7 ar
    14    6   49 1
    15    7   50 1
    16    8    9 2
    17    8   10 2
    18    8   11 1
    19   11   12 1
    20   12   13 1
    21   12   51 1
    22   12   52 1
    23   13   14 1
    24   13   53 1
    25   13   54 1
    26   14   15 1
    27   14   55 1
    28   14   56 1
    29   15   16 1
    30   15   57 1
    31   15   58 1
    32   16   17 1
    33   16   59 1
    34   16   60 1
    35   17   18 1
    36   17   61 1
    37   17   62 1
    38   18   19 1
    39   18   63 1
    40   18   64 1
    41   19   20 1
    42   19   65 1
    43   19   66 1
    44   20   21 1
    45   20   67 1
    46   20   68 1
    47   21   22 1
    48   21   69 1
    49   21   70 1
    50   22   23 1
    51   22   32 1
    52   22   24 1
    53   24   25 1
    54   24   71 1
    55   24   72 1
    56   25   30 1
    57   25   26 1
    58   25   43 1
    59   26   27 1
    60   26   28 1
    61   26   42 1
    62   28   29 1
    63   28   73 1
    64   28   74 1
    65   29   30 1
    66   29   75 1
    67   29   76 1
    68   30   31 1
    69   30   77 1
    70   31   40 1
    71   31   32 1
    72   31   78 1
    73   32   33 1
    74   32   79 1
    75   33   38 ar
    76   33   34 ar
    77   34   35 ar
    78   34   80 1
    79   35   36 ar
    80   35   81 1
    81   36   37 ar
    82   36   41 1
    83   37   38 ar
    84   37   82 1
    85   38   39 1
    86   39   40 1
    87   39   83 1
    88   39   84 1
    89   40   85 1
    90   40   86 1
    91   41   87 1
    92   42   88 1
    93   43   89 1
    94   43   90 1
    95   43   91 1
