@<TRIPOS>MOLECULE
CHEMBL155510
   70    74     0     0     0
SMALL
USER_CHARGES

@<TRIPOS>ATOM
      1 C1         -0.0178    1.4608    0.0101 C.3       1 <0>         0.0991
      2 N1          0.0021   -0.0041    0.0020 N.pl3     1 <0>        -0.5705
      3 C2          0.0241   -0.7433    1.2666 C.3       1 <0>         0.1277
      4 C3         -1.4105   -1.0203    1.7205 C.3       1 <0>        -0.1269
      5 C4         -1.3875   -1.7923    3.0413 C.3       1 <0>        -0.0716
      6 C5         -2.8005   -2.0651    3.4884 C.ar      1 <0>        -0.0735
      7 C6         -3.4577   -1.1530    4.2931 C.ar      1 <0>        -0.1064
      8 C7         -4.7541   -1.3985    4.7054 C.ar      1 <0>        -0.0973
      9 C8         -5.3981   -2.5607    4.3130 C.ar      1 <0>         0.0287
     10 C9         -4.7361   -3.4796    3.5024 C.ar      1 <0>         0.0346
     11 C10        -3.4389   -3.2242    3.0883 C.ar      1 <0>        -0.0968
     12 O1         -5.5742   -4.5289    3.2579 O.3       1 <0>        -0.3094
     13 C11        -6.6061   -4.4378    4.2580 C.3       1 <0>         0.2129
     14 O2         -6.6509   -3.0343    4.5762 O.3       1 <0>        -0.3083
     15 C12         0.0000   -0.6876   -1.1969 C.ar      1 <0>         0.6578
     16 N2          0.0126   -2.0171   -1.2042 N.ar      1 <0>        -0.6584
     17 C13         0.0106   -2.6754   -2.3589 C.ar      1 <0>         0.6589
     18 N3         -0.0039   -2.0045   -3.5066 N.ar      1 <0>        -0.6817
     19 C14        -0.0169   -0.6754   -3.4993 C.ar      1 <0>         0.6545
     20 N4         -0.0200   -0.0169   -2.3443 N.ar      1 <0>        -0.6773
     21 N5         -0.0315    0.0211   -4.6907 N.pl3     1 <0>        -0.5987
     22 C15        -0.0398    1.4921   -4.7069 C.3       1 <0>         0.1065
     23 C16         1.0694    1.9737   -5.6479 C.3       1 <0>        -0.0217
     24 N6          0.8954    1.3521   -6.9667 N.4       1 <0>        -0.5057
     25 C17         1.0705   -0.1019   -6.8613 C.3       1 <0>        -0.0213
     26 C18        -0.0330   -0.6864   -5.9805 C.3       1 <0>         0.1057
     27 N7          0.0241   -4.0554   -2.3664 N.pl3     1 <0>        -0.6825
     28 C19         0.0405   -4.7947   -1.1018 C.3       1 <0>         0.1414
     29 C20         0.0532   -6.2974   -1.3895 C.3       1 <0>        -0.0913
     30 C21         0.0701   -7.0579   -0.0886 C.ar      1 <0>        -0.0960
     31 C22         1.2759   -7.3895    0.5013 C.ar      1 <0>        -0.0950
     32 C23         1.2941   -8.0869    1.6936 C.ar      1 <0>        -0.1431
     33 C24         0.1013   -8.4543    2.2993 C.ar      1 <0>         0.1097
     34 C25        -1.1072   -8.1200    1.7056 C.ar      1 <0>        -0.1418
     35 C26        -1.1201   -7.4179    0.5159 C.ar      1 <0>        -0.0942
     36 O3          0.1166   -9.1409    3.4720 O.3       1 <0>        -0.4992
     37 H1          1.0048    1.8381    0.0023 H         1 <0>         0.0561
     38 H2         -0.5450    1.8219   -0.8730 H         1 <0>         0.0786
     39 H3         -0.5280    1.8123    0.9069 H         1 <0>         0.0751
     40 H4          0.5496   -1.6879    1.1262 H         1 <0>         0.0924
     41 H5          0.5371   -0.1514    2.0246 H         1 <0>         0.0833
     42 H6         -1.9359   -0.0757    1.8610 H         1 <0>         0.0657
     43 H7         -1.9235   -1.6122    0.9626 H         1 <0>         0.0685
     44 H8         -0.8620   -2.7369    2.9008 H         1 <0>         0.0786
     45 H9         -0.8745   -1.2004    3.7993 H         1 <0>         0.0799
     46 H10        -2.9569   -0.2468    4.6005 H         1 <0>         0.1378
     47 H11        -5.2650   -0.6842    5.3339 H         1 <0>         0.1368
     48 H12        -2.9247   -3.9329    2.4560 H         1 <0>         0.1328
     49 H13        -7.5623   -4.7695    3.8531 H         1 <0>         0.1337
     50 H14        -6.3387   -5.0219    5.1386 H         1 <0>         0.0869
     51 H15        -1.0052    1.8490   -5.0659 H         1 <0>         0.0925
     52 H16         0.1430    1.8705   -3.7012 H         1 <0>         0.1412
     53 H17         1.0164    3.0579   -5.7472 H         1 <0>         0.1469
     54 H18         2.0401    1.6931   -5.2391 H         1 <0>         0.1338
     55 H19        -0.0307    1.5539   -7.3127 H         1 <0>         0.4288
     56 H20         1.0183   -0.5473   -7.8548 H         1 <0>         0.1472
     57 H21         2.0412   -0.3197   -6.4158 H         1 <0>         0.1337
     58 H22         0.1544   -1.7476   -5.8164 H         1 <0>         0.1418
     59 H23        -0.9976   -0.5532   -6.4702 H         1 <0>         0.0920
     60 H24         0.0226   -4.5359   -3.2091 H         1 <0>         0.4163
     61 H25         0.9321   -4.5258   -0.5353 H         1 <0>         0.0737
     62 H26        -0.8477   -4.5432   -0.5223 H         1 <0>         0.0740
     63 H27        -0.8384   -6.5663   -1.9560 H         1 <0>         0.0814
     64 H28         0.9415   -6.5489   -1.9690 H         1 <0>         0.0812
     65 H29         2.2042   -7.1033    0.0294 H         1 <0>         0.1264
     66 H30         2.2362   -8.3464    2.1536 H         1 <0>         0.1304
     67 H31        -2.0371   -8.4048    2.1752 H         1 <0>         0.1302
     68 H32        -2.0606   -7.1535    0.0556 H         1 <0>         0.1265
     69 H33         0.1129   -8.5773    4.2578 H         1 <0>         0.3934
     70 H34         1.5798    1.7266   -7.6066 H         1 <0>         0.4336
@<TRIPOS>BOND
     1    1    2 1
     2    1   37 1
     3    1   38 1
     4    1   39 1
     5    2    3 1
     6    2   15 1
     7    3    4 1
     8    3   40 1
     9    3   41 1
    10    4    5 1
    11    4   42 1
    12    4   43 1
    13    5    6 1
    14    5   44 1
    15    5   45 1
    16    6   11 ar
    17    6    7 ar
    18    7    8 ar
    19    7   46 1
    20    8    9 ar
    21    8   47 1
    22    9   14 1
    23    9   10 ar
    24   10   11 ar
    25   10   12 1
    26   11   48 1
    27   12   13 1
    28   13   14 1
    29   13   49 1
    30   13   50 1
    31   15   20 ar
    32   15   16 ar
    33   16   17 ar
    34   17   18 ar
    35   17   27 1
    36   18   19 ar
    37   19   20 ar
    38   19   21 1
    39   21   26 1
    40   21   22 1
    41   22   23 1
    42   22   51 1
    43   22   52 1
    44   23   24 1
    45   23   53 1
    46   23   54 1
    47   24   25 1
    48   24   55 1
    49   24   70 1
    50   25   26 1
    51   25   56 1
    52   25   57 1
    53   26   58 1
    54   26   59 1
    55   27   28 1
    56   27   60 1
    57   28   29 1
    58   28   61 1
    59   28   62 1
    60   29   30 1
    61   29   63 1
    62   29   64 1
    63   30   35 ar
    64   30   31 ar
    65   31   32 ar
    66   31   65 1
    67   32   33 ar
    68   32   66 1
    69   33   34 ar
    70   33   36 1
    71   34   35 ar
    72   34   67 1
    73   35   68 1
    74   36   69 1
