@<TRIPOS>MOLECULE
CHEMBL385680
   38    41     0     0     0
SMALL
USER_CHARGES

@<TRIPOS>ATOM
      1 C1         -0.1194    1.5424   -0.4247 C.3       1 <0>        -0.1557
      2 C2         -0.1079    0.0125   -0.4150 C.3       1 <0>        -0.1053
      3 C3          0.8554   -0.4972   -1.4888 C.3       1 <0>        -0.0408
      4 C4          2.2828    0.0031   -1.2489 C.3       1 <0>        -0.1099
      5 C5          2.7984   -0.6100    0.0573 C.3       1 <0>        -0.1612
      6 C6          2.7257   -2.1118    0.0026 C.2       1 <0>         0.4002
      7 O1          3.5066   -2.7722    0.6586 O.2       1 <0>        -0.4451
      8 C7          1.7668   -2.7647   -0.7964 C.2       1 <0>        -0.3107
      9 C8          0.9078   -2.0163   -1.5252 C.2       1 <0>         0.1153
     10 C9         -0.0967   -2.4429   -2.5015 C.ar      1 <0>        -0.1519
     11 C10        -0.7679   -3.6841   -2.6486 C.ar      1 <0>        -0.0270
     12 C11        -1.6322   -3.9141   -3.6575 C.ar      1 <0>        -0.1079
     13 C12        -1.8966   -2.9009   -4.6090 C.ar      1 <0>         0.1510
     14 C13        -1.2343   -1.5949   -4.4553 C.ar      1 <0>        -0.2157
     15 C14        -0.3623   -1.3934   -3.3748 C.ar      1 <0>         0.0494
     16 C15         0.3645   -0.1494   -2.9051 C.3       1 <0>        -0.0867
     17 C16        -1.6729   -0.8082   -5.5149 C.2       1 <0>         0.3077
     18 N1         -2.5164   -1.5463   -6.2483 N.pl3     1 <0>        -0.4302
     19 N2         -2.6477   -2.8220   -5.6891 N.2       1 <0>        -0.2697
     20 H1         -2.9697   -1.2410   -7.0496 H         1 <0>         0.4523
     21 F1         -1.3135    0.4708   -5.7600 F         1 <0>        -0.0798
     22 C17         1.6994   -4.2696   -0.8383 C.3       1 <0>         0.5172
     23 F2          1.5136   -4.6915   -2.1592 F         1 <0>        -0.1755
     24 F3          2.8931   -4.8040   -0.3415 F         1 <0>        -0.1603
     25 F4          0.6287   -4.7105   -0.0530 F         1 <0>        -0.1776
     26 H2          0.8842    1.9146   -0.2188 H         1 <0>         0.0635
     27 H3         -0.4448    1.8971   -1.4027 H         1 <0>         0.0599
     28 H4         -0.8057    1.9055    0.3403 H         1 <0>         0.0637
     29 H5          0.2175   -0.3422    0.5630 H         1 <0>         0.0764
     30 H6         -1.1115   -0.3597   -0.6210 H         1 <0>         0.0752
     31 H7          2.9228   -0.3048   -2.0758 H         1 <0>         0.0800
     32 H8          2.2813    1.0901   -1.1678 H         1 <0>         0.0953
     33 H9          3.8334   -0.3058    0.2131 H         1 <0>         0.1056
     34 H10         2.1901   -0.2509    0.8875 H         1 <0>         0.1081
     35 H11        -0.5805   -4.4688   -1.9306 H         1 <0>         0.1354
     36 H12        -2.1230   -4.8727   -3.7396 H         1 <0>         0.1456
     37 H13        -0.3180    0.7000   -2.8728 H         1 <0>         0.1039
     38 H14         1.2101    0.0661   -3.5582 H         1 <0>         0.1051
@<TRIPOS>BOND
     1    1    2 1
     2    1   26 1
     3    1   27 1
     4    1   28 1
     5    2    3 1
     6    2   29 1
     7    2   30 1
     8    3    9 1
     9    3   16 1
    10    3    4 1
    11    4    5 1
    12    4   31 1
    13    4   32 1
    14    5    6 1
    15    5   33 1
    16    5   34 1
    17    6    7 2
    18    6    8 1
    19    8    9 2
    20    8   22 1
    21    9   10 1
    22   10   15 ar
    23   10   11 ar
    24   11   12 ar
    25   11   35 1
    26   12   13 ar
    27   12   36 1
    28   13   14 ar
    29   13   19 2
    30   14   15 ar
    31   14   17 2
    32   15   16 1
    33   16   37 1
    34   16   38 1
    35   17   21 1
    36   17   18 1
    37   18   20 1
    38   18   19 1
    39   22   23 1
    40   22   24 1
    41   22   25 1
