@<TRIPOS>MOLECULE
CHEMBL186598
   41    43     0     0     0
SMALL
USER_CHARGES

@<TRIPOS>ATOM
      1 C1         -0.3293    1.3137   -0.4864 C.3       1 <0>        -0.1538
      2 C2         -0.2372   -0.2046   -0.3209 C.3       1 <0>        -0.1176
      3 C3          0.6070   -0.5329    0.9121 C.3       1 <0>        -0.0782
      4 C4          0.6977   -2.0283    1.0752 C.ar      1 <0>        -0.1106
      5 C5          1.8272   -2.6994    0.6571 C.ar      1 <0>        -0.0649
      6 C6          1.9103   -4.0832    0.8083 C.ar      1 <0>        -0.0512
      7 C7          0.8496   -4.7840    1.3823 C.ar      1 <0>        -0.0287
      8 C8         -0.2768   -4.1073    1.7982 C.ar      1 <0>        -0.1412
      9 C9         -0.3541   -2.7282    1.6514 C.ar      1 <0>         0.1346
     10 O1         -1.4633   -2.0635    2.0673 O.3       1 <0>        -0.4919
     11 C10         0.9350   -6.2795    1.5472 C.3       1 <0>        -0.1025
     12 C11         1.6652   -6.6080    2.8510 C.3       1 <0>        -0.1449
     13 C12         3.1227   -4.8077    0.3596 C.2       1 <0>         0.1863
     14 C13         4.5174   -4.4471    0.6611 C.ar      1 <0>        -0.1976
     15 C14         5.1082   -3.4143    1.3905 C.ar      1 <0>        -0.0198
     16 C15         6.4682   -3.3441    1.4915 C.ar      1 <0>        -0.1712
     17 C16         7.2716   -4.2973    0.8702 C.ar      1 <0>         0.1719
     18 C17         6.7023   -5.3274    0.1429 C.ar      1 <0>        -0.1572
     19 C18         5.3206   -5.4118    0.0326 C.ar      1 <0>         0.1051
     20 O2          4.4948   -6.2765   -0.5915 O.3       1 <0>        -0.0868
     21 N1          3.1532   -5.8895   -0.3730 N.2       1 <0>        -0.2747
     22 O3          8.6230   -4.2147    0.9787 O.3       1 <0>        -0.4905
     23 H1          0.6716    1.7269   -0.6108 H         1 <0>         0.0554
     24 H2         -0.9307    1.5476   -1.3648 H         1 <0>         0.0561
     25 H3         -0.7943    1.7481    0.3986 H         1 <0>         0.0565
     26 H4         -1.2382   -0.6178   -0.1965 H         1 <0>         0.0591
     27 H5          0.2278   -0.6390   -1.2058 H         1 <0>         0.0627
     28 H6          1.6079   -0.1197    0.7877 H         1 <0>         0.0741
     29 H7          0.1420   -0.0985    1.7971 H         1 <0>         0.0824
     30 H8          2.6466   -2.1540    0.2127 H         1 <0>         0.1335
     31 H9         -1.0985   -4.6494    2.2424 H         1 <0>         0.1376
     32 H10        -2.1487   -1.9800    1.3904 H         1 <0>         0.3932
     33 H11        -0.0703   -6.6996    1.5779 H         1 <0>         0.0802
     34 H12         1.4819   -6.7070    0.7068 H         1 <0>         0.0893
     35 H13         2.6705   -6.1879    2.8202 H         1 <0>         0.0509
     36 H14         1.1182   -6.1805    3.6914 H         1 <0>         0.0591
     37 H15         1.7269   -7.6897    2.9702 H         1 <0>         0.0630
     38 H16         4.4909   -2.6716    1.8740 H         1 <0>         0.1395
     39 H17         6.9237   -2.5442    2.0563 H         1 <0>         0.1437
     40 H18         7.3303   -6.0633   -0.3373 H         1 <0>         0.1474
     41 H19         8.9863   -4.6894    1.7389 H         1 <0>         0.4015
@<TRIPOS>BOND
     1    1    2 1
     2    1   23 1
     3    1   24 1
     4    1   25 1
     5    2    3 1
     6    2   26 1
     7    2   27 1
     8    3    4 1
     9    3   28 1
    10    3   29 1
    11    4    9 ar
    12    4    5 ar
    13    5    6 ar
    14    5   30 1
    15    6    7 ar
    16    6   13 1
    17    7    8 ar
    18    7   11 1
    19    8    9 ar
    20    8   31 1
    21    9   10 1
    22   10   32 1
    23   11   12 1
    24   11   33 1
    25   11   34 1
    26   12   35 1
    27   12   36 1
    28   12   37 1
    29   13   21 2
    30   13   14 1
    31   14   19 ar
    32   14   15 ar
    33   15   16 ar
    34   15   38 1
    35   16   17 ar
    36   16   39 1
    37   17   18 ar
    38   17   22 1
    39   18   19 ar
    40   18   40 1
    41   19   20 1
    42   20   21 1
    43   22   41 1
