@<TRIPOS>MOLECULE
CHEMBL328675
   39    42     0     0     0
SMALL
USER_CHARGES

@<TRIPOS>ATOM
      1 C1         -0.0166    1.3788    0.0114 C.ar      1 <0>        -0.1758
      2 C2          0.0147    0.0134    0.2284 C.ar      1 <0>        -0.0712
      3 C3          1.2191   -0.6623    0.2131 C.ar      1 <0>        -0.1945
      4 C4          2.3998    0.0311   -0.0206 C.ar      1 <0>         0.2227
      5 C5          2.3648    1.4026   -0.2381 C.ar      1 <0>        -0.1938
      6 C6          1.1570    2.0721   -0.2214 C.ar      1 <0>        -0.0717
      7 N1          3.6196   -0.6492   -0.0363 N.pl3     1 <0>        -0.6219
      8 C7          4.8976    0.0732   -0.1486 C.3       1 <0>         0.1185
      9 C8          5.5518   -0.3325   -1.4684 C.3       1 <0>        -0.1012
     10 C9          5.5303   -1.8286   -1.6399 C.ar      1 <0>        -0.0417
     11 C10         6.4323   -2.3860   -2.5371 C.ar      1 <0>        -0.1476
     12 C11         6.4593   -3.7534   -2.7493 C.ar      1 <0>         0.1145
     13 C12         5.5765   -4.5736   -2.0614 C.ar      1 <0>        -0.1456
     14 C13         4.6841   -4.0187   -1.1691 C.ar      1 <0>        -0.0855
     15 C14         4.6621   -2.6471   -0.9521 C.ar      1 <0>        -0.1004
     16 C15         3.6790   -2.1112    0.0645 C.3       1 <0>         0.2835
     17 C16         4.1221   -2.5007    1.4512 C.2       1 <0>        -0.1517
     18 C17         3.6824   -3.5159    2.2343 C.2       1 <0>        -0.1489
     19 C18         4.2410   -3.6865    3.4871 C.2       1 <0>        -0.1560
     20 C19         5.2121   -2.8336    3.8955 C.2       1 <0>        -0.1797
     21 S1          5.3681   -1.7494    2.4858 S.3       1 <0>         0.0533
     22 O1          7.3463   -4.2903   -3.6280 O.3       1 <0>        -0.4987
     23 H1         -0.9602    1.9041    0.0195 H         1 <0>         0.1184
     24 H2         -0.9036   -0.5250    0.4103 H         1 <0>         0.1209
     25 H3          1.2429   -1.7286    0.3829 H         1 <0>         0.1186
     26 H4          3.2810    1.9448   -0.4198 H         1 <0>         0.1224
     27 H5          1.1290    3.1385   -0.3905 H         1 <0>         0.1214
     28 H6          4.7157    1.1478   -0.1422 H         1 <0>         0.0958
     29 H7          5.5480   -0.1964    0.6835 H         1 <0>         0.0709
     30 H8          5.0112    0.1308   -2.2938 H         1 <0>         0.0869
     31 H9          6.5850    0.0146   -1.4780 H         1 <0>         0.0887
     32 H10         7.1184   -1.7471   -3.0733 H         1 <0>         0.1303
     33 H11         5.5882   -5.6412   -2.2243 H         1 <0>         0.1319
     34 H12         3.9959   -4.6563   -0.6340 H         1 <0>         0.1278
     35 H13         2.6911   -2.5286   -0.1304 H         1 <0>         0.1169
     36 H14         2.9068   -4.1813    1.8848 H         1 <0>         0.1322
     37 H15         3.9084   -4.4872    4.1310 H         1 <0>         0.1335
     38 H16         5.7538   -2.8168    4.8297 H         1 <0>         0.1841
     39 H17         8.1936   -4.5350   -3.2314 H         1 <0>         0.3926
@<TRIPOS>BOND
     1    1    6 ar
     2    1    2 ar
     3    1   23 1
     4    2    3 ar
     5    2   24 1
     6    3    4 ar
     7    3   25 1
     8    4    5 ar
     9    4    7 1
    10    5    6 ar
    11    5   26 1
    12    6   27 1
    13    7   16 1
    14    7    8 1
    15    8    9 1
    16    8   28 1
    17    8   29 1
    18    9   10 1
    19    9   30 1
    20    9   31 1
    21   10   15 ar
    22   10   11 ar
    23   11   12 ar
    24   11   32 1
    25   12   13 ar
    26   12   22 1
    27   13   14 ar
    28   13   33 1
    29   14   15 ar
    30   14   34 1
    31   15   16 1
    32   16   17 1
    33   16   35 1
    34   17   21 1
    35   17   18 2
    36   18   19 1
    37   18   36 1
    38   19   20 2
    39   19   37 1
    40   20   21 1
    41   20   38 1
    42   22   39 1
