@<TRIPOS>MOLECULE
CHEMBL46408
   58    62     0     0     0
SMALL
USER_CHARGES

@<TRIPOS>ATOM
      1 C1          0.4017    0.9949   -0.0151 C.ar      1 <0>        -0.0229
      2 C2          1.5828    1.6956    0.0888 C.ar      1 <0>        -0.1519
      3 C3          2.7774    1.0192    0.3061 C.ar      1 <0>         0.1482
      4 C4          2.7852   -0.3661    0.4194 C.ar      1 <0>        -0.2143
      5 C5          1.6083   -1.0739    0.3167 C.ar      1 <0>        -0.0170
      6 C6          0.4053   -0.3976    0.0987 C.ar      1 <0>        -0.1909
      7 C7         -0.8594   -1.1530   -0.0121 C.2       1 <0>         0.4636
      8 O1         -1.9173   -0.5577   -0.1172 O.2       1 <0>        -0.4287
      9 C8         -0.8421   -2.5708    0.0039 C.2       1 <0>        -0.1929
     10 C9         -0.8504   -3.3133    1.2678 C.ar      1 <0>        -0.0657
     11 C10        -0.8740   -2.7969    2.5828 C.ar      1 <0>        -0.0668
     12 C11        -0.8782   -3.6363    3.6661 C.ar      1 <0>        -0.1346
     13 C12        -0.8590   -5.0186    3.5064 C.ar      1 <0>         0.1334
     14 C13        -0.8356   -5.5543    2.2285 C.ar      1 <0>        -0.0975
     15 C14        -0.8318   -4.7139    1.1353 C.ar      1 <0>        -0.1061
     16 S1         -0.8047   -4.9923   -0.6169 S.3       1 <0>         0.0995
     17 C15        -0.8227   -3.3017   -1.1790 C.2       1 <0>        -0.0128
     18 C16        -0.8165   -2.7993   -2.5630 C.2       1 <0>        -0.0833
     19 C17        -0.9207   -3.6927   -3.6908 C.2       1 <0>        -0.1324
     20 C18        -0.9030   -3.1066   -4.9057 C.2       1 <0>        -0.1946
     21 S2         -0.7477   -1.3770   -4.5165 S.3       1 <0>         0.2029
     22 C19        -0.7166   -1.4549   -2.8408 C.2       1 <0>        -0.2248
     23 O2         -0.8626   -5.8354    4.5931 O.3       1 <0>        -0.4913
     24 O3          3.9395    1.7132    0.4074 O.3       1 <0>        -0.3238
     25 C20         5.1303    0.9555    0.6308 C.3       1 <0>         0.0227
     26 C21         6.3289    1.9026    0.7166 C.3       1 <0>        -0.0009
     27 N1          6.1755    2.7821    1.8832 N.4       1 <0>        -0.3846
     28 C22         7.2404    3.7922    1.8758 C.3       1 <0>        -0.0071
     29 C23         7.0385    4.7603    3.0435 C.3       1 <0>        -0.1468
     30 C24         7.0825    3.9795    4.3602 C.3       1 <0>        -0.1391
     31 C25         6.0165    2.8805    4.3264 C.3       1 <0>        -0.1455
     32 C26         6.2564    1.9821    3.1111 C.3       1 <0>        -0.0136
     33 H1         -0.5267    1.5216   -0.1799 H         1 <0>         0.1487
     34 H2          1.5809    2.7720    0.0009 H         1 <0>         0.1424
     35 H3          3.7155   -0.8881    0.5879 H         1 <0>         0.1351
     36 H4          1.6153   -2.1503    0.4042 H         1 <0>         0.1376
     37 H5         -0.8885   -1.7280    2.7360 H         1 <0>         0.1262
     38 H6         -0.8964   -3.2176    4.6614 H         1 <0>         0.1383
     39 H7         -0.8202   -6.6252    2.0894 H         1 <0>         0.1428
     40 H8         -1.0070   -4.7625   -3.5703 H         1 <0>         0.1481
     41 H9         -0.9674   -3.5733   -5.8775 H         1 <0>         0.1954
     42 H10        -0.6351   -0.6371   -2.1401 H         1 <0>         0.1821
     43 H11        -1.7469   -6.0826    4.8964 H         1 <0>         0.3995
     44 H12         5.0381    0.4007    1.5645 H         1 <0>         0.0893
     45 H13         5.2769    0.2576   -0.1935 H         1 <0>         0.1125
     46 H14         7.2451    1.3208    0.8180 H         1 <0>         0.1505
     47 H15         6.3803    2.5064   -0.1894 H         1 <0>         0.1437
     48 H16         8.2080    3.3002    1.9755 H         1 <0>         0.1295
     49 H17         7.2099    4.3449    0.9368 H         1 <0>         0.1314
     50 H18         7.8312    5.5084    3.0374 H         1 <0>         0.1134
     51 H19         6.0712    5.2530    2.9447 H         1 <0>         0.0881
     52 H20         8.0671    3.5286    4.4838 H         1 <0>         0.0823
     53 H21         6.8828    4.6554    5.1916 H         1 <0>         0.0950
     54 H22         6.0787    2.2850    5.2372 H         1 <0>         0.1126
     55 H23         5.0281    3.3342    4.2542 H         1 <0>         0.0879
     56 H24         5.4993    1.1984    3.0842 H         1 <0>         0.1270
     57 H25         7.2449    1.5287    3.1845 H         1 <0>         0.1308
     58 H26         5.2784    3.2418    1.8409 H         1 <0>         0.4292
@<TRIPOS>BOND
     1    1    6 ar
     2    1    2 ar
     3    1   33 1
     4    2    3 ar
     5    2   34 1
     6    3    4 ar
     7    3   24 1
     8    4    5 ar
     9    4   35 1
    10    5    6 ar
    11    5   36 1
    12    6    7 1
    13    7    8 2
    14    7    9 1
    15    9   17 2
    16    9   10 1
    17   10   15 ar
    18   10   11 ar
    19   11   12 ar
    20   11   37 1
    21   12   13 ar
    22   12   38 1
    23   13   14 ar
    24   13   23 1
    25   14   15 ar
    26   14   39 1
    27   15   16 1
    28   16   17 1
    29   17   18 1
    30   18   22 2
    31   18   19 1
    32   19   20 2
    33   19   40 1
    34   20   21 1
    35   20   41 1
    36   21   22 1
    37   22   42 1
    38   23   43 1
    39   24   25 1
    40   25   26 1
    41   25   44 1
    42   25   45 1
    43   26   27 1
    44   26   46 1
    45   26   47 1
    46   27   32 1
    47   27   28 1
    48   27   58 1
    49   28   29 1
    50   28   48 1
    51   28   49 1
    52   29   30 1
    53   29   50 1
    54   29   51 1
    55   30   31 1
    56   30   52 1
    57   30   53 1
    58   31   32 1
    59   31   54 1
    60   31   55 1
    61   32   56 1
    62   32   57 1
