@<TRIPOS>MOLECULE
CHEMBL1087546
   71    76     0     0     0
SMALL
USER_CHARGES

@<TRIPOS>ATOM
      1 C1         -0.0162    1.3768   -0.0658 C.ar      1 <0>        -0.0565
      2 C2          1.1699    2.0849   -0.0735 C.ar      1 <0>        -0.1429
      3 C3          2.3801    1.4093   -0.0131 C.ar      1 <0>         0.1278
      4 C4          2.3958    0.0238    0.0550 C.ar      1 <0>        -0.2018
      5 C5          1.2069   -0.6797    0.0624 C.ar      1 <0>        -0.0642
      6 C6          0.0021   -0.0041    0.0020 C.ar      1 <0>        -0.1395
      7 C7         -1.2934   -0.7740    0.0107 C.3       1 <0>         0.1904
      8 H1         -2.0981   -0.1272   -0.3388 H         1 <0>         0.1328
      9 C8         -1.5932   -1.2245    1.4143 C.2       1 <0>        -0.1062
     10 C9         -1.1385   -2.4249    1.8427 C.2       1 <0>        -0.0428
     11 C10        -1.4582   -2.8864    3.2382 C.3       1 <0>        -0.1209
     12 C11        -0.6373   -2.1049    4.2624 C.3       1 <0>         0.0755
     13 O1         -0.6352   -0.7141    3.9686 O.3       1 <0>        -0.3239
     14 C12        -1.8166   -0.1393    3.6260 C.ar      1 <0>         0.1325
     15 C13        -2.3411   -0.3658    2.3423 C.ar      1 <0>        -0.0822
     16 C14        -3.5507    0.2195    1.9717 C.ar      1 <0>        -0.0747
     17 C15        -4.2285    1.0173    2.8703 C.ar      1 <0>        -0.1484
     18 C16        -3.7101    1.2380    4.1401 C.ar      1 <0>         0.1312
     19 C17        -2.5051    0.6597    4.5173 C.ar      1 <0>        -0.1583
     20 O2         -4.3858    2.0244    5.0181 O.3       1 <0>        -0.4952
     21 C18        -0.3572   -3.2518    0.9135 C.ar      1 <0>        -0.1278
     22 C19         0.4179   -4.3211    1.3553 C.ar      1 <0>        -0.0567
     23 C20         1.1345   -5.0678    0.4428 C.ar      1 <0>        -0.1699
     24 C21         1.0848   -4.7557   -0.9104 C.ar      1 <0>         0.1468
     25 C22         0.3140   -3.6916   -1.3591 C.ar      1 <0>        -0.1744
     26 C23        -0.4095   -2.9378   -0.4565 C.ar      1 <0>         0.1509
     27 O3         -1.1792   -1.8976   -0.8630 O.3       1 <0>        -0.2951
     28 O4          1.7956   -5.4966   -1.8003 O.3       1 <0>        -0.4966
     29 O5          3.5484    2.1036   -0.0209 O.3       1 <0>        -0.3124
     30 C24         4.7560    1.3423    0.0437 C.3       1 <0>         0.0625
     31 C25         5.9575    2.2893    0.0242 C.3       1 <0>        -0.1503
     32 C26         7.2505    1.4742    0.0934 C.3       1 <0>        -0.0063
     33 N1          8.4041    2.3834    0.0746 N.4       1 <0>        -0.3812
     34 C27         8.3921    3.2118    1.2862 C.3       1 <0>        -0.0141
     35 C28         9.5453    4.2162    1.2335 C.3       1 <0>        -0.1458
     36 C29        10.8724    3.4572    1.1453 C.3       1 <0>        -0.1398
     37 C30        10.8445    2.5406   -0.0812 C.3       1 <0>        -0.1463
     38 C31         9.6431    1.5983    0.0203 C.3       1 <0>        -0.0067
     39 H2         -0.9587    1.9025   -0.1084 H         1 <0>         0.1354
     40 H3          1.1551    3.1635   -0.1270 H         1 <0>         0.1353
     41 H4          3.3366   -0.5044    0.1018 H         1 <0>         0.1254
     42 H5          1.2185   -1.7583    0.1154 H         1 <0>         0.1306
     43 H6         -2.5192   -2.7315    3.4340 H         1 <0>         0.0860
     44 H7         -1.2279   -3.9481    3.3274 H         1 <0>         0.0945
     45 H8         -1.0627   -2.2597    5.2540 H         1 <0>         0.0648
     46 H9          0.3886   -2.4731    4.2537 H         1 <0>         0.1012
     47 H10        -3.9554    0.0494    0.9849 H         1 <0>         0.1359
     48 H11        -5.1657    1.4722    2.5854 H         1 <0>         0.1377
     49 H12        -2.1070    0.8349    5.5058 H         1 <0>         0.1388
     50 H13        -5.0155    1.5436    5.5727 H         1 <0>         0.3969
     51 H14         0.4582   -4.5643    2.4068 H         1 <0>         0.1355
     52 H15         1.7366   -5.8979    0.7817 H         1 <0>         0.1364
     53 H16         0.2804   -3.4539   -2.4121 H         1 <0>         0.1419
     54 H17         1.3112   -6.2534   -2.1577 H         1 <0>         0.3994
     55 H18         4.7685    0.7584    0.9640 H         1 <0>         0.0721
     56 H19         4.8085    0.6709   -0.8133 H         1 <0>         0.0727
     57 H20         5.9450    2.8733   -0.8961 H         1 <0>         0.0994
     58 H21         5.9050    2.9607    0.8812 H         1 <0>         0.0992
     59 H22         7.2630    0.8903    1.0137 H         1 <0>         0.1334
     60 H23         7.3030    0.8028   -0.7637 H         1 <0>         0.1354
     61 H24         7.4457    3.7489    1.3492 H         1 <0>         0.1322
     62 H25         8.5060    2.5742    2.1629 H         1 <0>         0.1294
     63 H26         9.4322    4.8546    0.3572 H         1 <0>         0.0880
     64 H27         9.5357    4.8291    2.1348 H         1 <0>         0.1125
     65 H28        11.6933    4.1680    1.0505 H         1 <0>         0.0946
     66 H29        11.0100    2.8578    2.0452 H         1 <0>         0.0818
     67 H30        10.7583    3.1442   -0.9847 H         1 <0>         0.0880
     68 H31        11.7635    1.9558   -0.1196 H         1 <0>         0.1129
     69 H32         9.7304    0.9951    0.9239 H         1 <0>         0.1289
     70 H33         9.6203    0.9442   -0.8513 H         1 <0>         0.1308
     71 H34         8.3486    2.9789   -0.7381 H         1 <0>         0.4236
@<TRIPOS>BOND
     1    1    6 ar
     2    1    2 ar
     3    1   39 1
     4    2    3 ar
     5    2   40 1
     6    3    4 ar
     7    3   29 1
     8    4    5 ar
     9    4   41 1
    10    5    6 ar
    11    5   42 1
    12    6    7 1
    13    7    8 1
    14    7   27 1
    15    7    9 1
    16    9   15 1
    17    9   10 2
    18   10   11 1
    19   10   21 1
    20   11   12 1
    21   11   43 1
    22   11   44 1
    23   12   13 1
    24   12   45 1
    25   12   46 1
    26   13   14 1
    27   14   19 ar
    28   14   15 ar
    29   15   16 ar
    30   16   17 ar
    31   16   47 1
    32   17   18 ar
    33   17   48 1
    34   18   19 ar
    35   18   20 1
    36   19   49 1
    37   20   50 1
    38   21   26 ar
    39   21   22 ar
    40   22   23 ar
    41   22   51 1
    42   23   24 ar
    43   23   52 1
    44   24   25 ar
    45   24   28 1
    46   25   26 ar
    47   25   53 1
    48   26   27 1
    49   28   54 1
    50   29   30 1
    51   30   31 1
    52   30   55 1
    53   30   56 1
    54   31   32 1
    55   31   57 1
    56   31   58 1
    57   32   33 1
    58   32   59 1
    59   32   60 1
    60   33   38 1
    61   33   34 1
    62   33   71 1
    63   34   35 1
    64   34   61 1
    65   34   62 1
    66   35   36 1
    67   35   63 1
    68   35   64 1
    69   36   37 1
    70   36   65 1
    71   36   66 1
    72   37   38 1
    73   37   67 1
    74   37   68 1
    75   38   69 1
    76   38   70 1
