@<TRIPOS>MOLECULE
CHEMBL414213
   48    51     0     0     0
SMALL
USER_CHARGES

@<TRIPOS>ATOM
      1 C1         -0.0187    1.5258    0.0104 C.3       1 <0>        -0.1548
      2 C2          0.0021   -0.0041    0.0020 C.3       1 <0>        -0.1154
      3 C3          0.7182   -0.4975   -1.2568 C.3       1 <0>        -0.0452
      4 C4          2.1746   -0.0419   -1.2171 C.3       1 <0>        -0.0799
      5 C5          2.9199   -0.7982   -0.1487 C.ar      1 <0>        -0.0508
      6 C6          3.9162   -0.1840    0.5772 C.ar      1 <0>        -0.1427
      7 C7          4.6057   -0.8970    1.5501 C.ar      1 <0>         0.1098
      8 C8          4.2964   -2.2292    1.7936 C.ar      1 <0>        -0.1487
      9 C9          3.2969   -2.8502    1.0753 C.ar      1 <0>        -0.0890
     10 C10         2.5967   -2.1340    0.1024 C.ar      1 <0>        -0.0528
     11 C11         1.5005   -2.7687   -0.6513 C.2       1 <0>        -0.0630
     12 C12         0.6282   -1.9977   -1.3214 C.2       1 <0>        -0.0634
     13 C13        -0.4362   -2.6347   -2.1181 C.ar      1 <0>        -0.0526
     14 C14        -1.5201   -1.8838   -2.5787 C.ar      1 <0>        -0.0894
     15 C15        -2.5158   -2.4973   -3.3085 C.ar      1 <0>        -0.1487
     16 C16        -2.4421   -3.8569   -3.5834 C.ar      1 <0>         0.1097
     17 C17        -1.3621   -4.6053   -3.1322 C.ar      1 <0>        -0.1427
     18 C18        -0.3586   -3.9984   -2.4096 C.ar      1 <0>        -0.0506
     19 C19         0.8373   -4.7916   -1.9515 C.3       1 <0>        -0.0801
     20 C20         1.3288   -4.2627   -0.6066 C.3       1 <0>        -0.0455
     21 C21         0.3106   -4.6204    0.4779 C.3       1 <0>        -0.1155
     22 C22         0.2237   -6.1418    0.6140 C.3       1 <0>        -0.1548
     23 O1         -3.4307   -4.4575   -4.2961 O.3       1 <0>        -0.4996
     24 O2          5.5872   -0.2888    2.2660 O.3       1 <0>        -0.4995
     25 H1          1.0039    1.9031    0.0027 H         1 <0>         0.0574
     26 H2         -0.5459    1.8868   -0.8726 H         1 <0>         0.0552
     27 H3         -0.5289    1.8773    0.9072 H         1 <0>         0.0559
     28 H4          0.5293   -0.3651    0.8851 H         1 <0>         0.0649
     29 H5         -1.0205   -0.3814    0.0098 H         1 <0>         0.0644
     30 H6          0.2337   -0.0711   -2.1352 H         1 <0>         0.0855
     31 H7          2.6393   -0.2302   -2.1849 H         1 <0>         0.0810
     32 H8          2.2143    1.0254   -0.9995 H         1 <0>         0.0869
     33 H9          4.1610    0.8512    0.3906 H         1 <0>         0.1297
     34 H10         4.8403   -2.7797    2.5470 H         1 <0>         0.1295
     35 H11         3.0567   -3.8861    1.2640 H         1 <0>         0.1304
     36 H12        -1.5778   -0.8269   -2.3641 H         1 <0>         0.1303
     37 H13        -3.3550   -1.9197   -3.6670 H         1 <0>         0.1294
     38 H14        -1.3093   -5.6622   -3.3479 H         1 <0>         0.1298
     39 H15         0.5580   -5.8401   -1.8478 H         1 <0>         0.0870
     40 H16         1.6349   -4.7022   -2.6890 H         1 <0>         0.0811
     41 H17         2.2855   -4.7267   -0.3666 H         1 <0>         0.0855
     42 H18         0.6246   -4.1880    1.4279 H         1 <0>         0.0641
     43 H19        -0.6669   -4.2237    0.2036 H         1 <0>         0.0654
     44 H20        -0.5018   -6.3966    1.3866 H         1 <0>         0.0561
     45 H21        -0.0903   -6.5742   -0.3360 H         1 <0>         0.0576
     46 H22         1.2011   -6.5385    0.8884 H         1 <0>         0.0551
     47 H23        -3.2829   -4.4564   -5.2518 H         1 <0>         0.3914
     48 H24         5.2766    0.1361    3.0772 H         1 <0>         0.3912
@<TRIPOS>BOND
     1    1    2 1
     2    1   25 1
     3    1   26 1
     4    1   27 1
     5    2    3 1
     6    2   28 1
     7    2   29 1
     8    3   12 1
     9    3    4 1
    10    3   30 1
    11    4    5 1
    12    4   31 1
    13    4   32 1
    14    5   10 ar
    15    5    6 ar
    16    6    7 ar
    17    6   33 1
    18    7    8 ar
    19    7   24 1
    20    8    9 ar
    21    8   34 1
    22    9   10 ar
    23    9   35 1
    24   10   11 1
    25   11   20 1
    26   11   12 2
    27   12   13 1
    28   13   18 ar
    29   13   14 ar
    30   14   15 ar
    31   14   36 1
    32   15   16 ar
    33   15   37 1
    34   16   17 ar
    35   16   23 1
    36   17   18 ar
    37   17   38 1
    38   18   19 1
    39   19   20 1
    40   19   39 1
    41   19   40 1
    42   20   21 1
    43   20   41 1
    44   21   22 1
    45   21   42 1
    46   21   43 1
    47   22   44 1
    48   22   45 1
    49   22   46 1
    50   23   47 1
    51   24   48 1
