@<TRIPOS>MOLECULE
CHEMBL46409
   58    62     0     0     0
SMALL
USER_CHARGES

@<TRIPOS>ATOM
      1 C1          5.3296    0.4270    4.8287 C.2       1 <0>        -0.1705
      2 C2          5.4065    1.2406    3.7214 C.2       1 <0>        -0.1034
      3 C3          5.2875    0.6012    2.4961 C.2       1 <0>        -0.1524
      4 S1          5.0760   -1.0988    2.9893 S.3       1 <0>         0.2140
      5 C4          5.1484   -0.9044    4.6563 C.2       1 <0>        -0.2331
      6 C5          5.3252    1.1738    1.1481 C.2       1 <0>         0.0014
      7 C6          5.3068    0.5069   -0.0753 C.2       1 <0>        -0.1854
      8 C7          5.3539    1.3165   -1.2958 C.ar      1 <0>        -0.0667
      9 C8          5.3470    0.8726   -2.6374 C.ar      1 <0>        -0.0641
     10 C9          5.3966    1.7687   -3.6730 C.ar      1 <0>        -0.1341
     11 C10         5.4553    3.1391   -3.4376 C.ar      1 <0>         0.1363
     12 C11         5.4636    3.6043   -2.1322 C.ar      1 <0>        -0.0975
     13 C12         5.4137    2.7068   -1.0866 C.ar      1 <0>        -0.1056
     14 S2          5.3978    2.8909    0.6782 S.3       1 <0>         0.1216
     15 O1          5.5045    4.0128   -4.4780 O.3       1 <0>        -0.4888
     16 C13         5.2451   -0.9078   -0.1370 C.2       1 <0>         0.4562
     17 O2          6.2704   -1.5649   -0.0932 O.2       1 <0>        -0.4204
     18 C14         3.9378   -1.5856   -0.2546 C.ar      1 <0>        -0.1840
     19 C15         2.7710   -0.8340   -0.4155 C.ar      1 <0>        -0.0212
     20 C16         1.5542   -1.4697   -0.5246 C.ar      1 <0>        -0.1520
     21 C17         1.4859   -2.8570   -0.4750 C.ar      1 <0>         0.1472
     22 C18         2.6442   -3.6082   -0.3151 C.ar      1 <0>        -0.2149
     23 C19         3.8655   -2.9803   -0.2109 C.ar      1 <0>        -0.0159
     24 O3          0.2846   -3.4798   -0.5825 O.3       1 <0>        -0.3245
     25 C20         0.2865   -4.9076   -0.5234 C.3       1 <0>         0.0228
     26 C21        -1.1465   -5.4256   -0.6609 C.3       1 <0>        -0.0010
     27 N1         -1.6726   -5.0652   -1.9843 N.4       1 <0>        -0.3845
     28 C22        -3.0945   -5.4219   -2.0576 C.3       1 <0>        -0.0071
     29 C23        -3.6675   -4.9751   -3.4043 C.3       1 <0>        -0.1467
     30 C24        -2.9055   -5.6736   -4.5342 C.3       1 <0>        -0.1392
     31 C25        -1.4134   -5.3544   -4.4037 C.3       1 <0>        -0.1454
     32 C26        -0.9239   -5.7872   -3.0200 C.3       1 <0>        -0.0135
     33 H1          5.4171    0.8436    5.8212 H         1 <0>         0.1419
     34 H2          5.5498    2.3080    3.8012 H         1 <0>         0.1477
     35 H3          5.0692   -1.6669    5.4170 H         1 <0>         0.1909
     36 H4          5.3023   -0.1855   -2.8491 H         1 <0>         0.1274
     37 H5          5.3905    1.4050   -4.6899 H         1 <0>         0.1392
     38 H6          5.5085    4.6652   -1.9347 H         1 <0>         0.1439
     39 H7          4.6362    4.3048   -4.7877 H         1 <0>         0.3976
     40 H8          2.8233    0.2440   -0.4538 H         1 <0>         0.1413
     41 H9          0.6518   -0.8894   -0.6487 H         1 <0>         0.1405
     42 H10         2.5870   -4.6860   -0.2766 H         1 <0>         0.1355
     43 H11         4.7657   -3.5649   -0.0911 H         1 <0>         0.1440
     44 H12         0.8957   -5.3041   -1.3356 H         1 <0>         0.0894
     45 H13         0.6997   -5.2311    0.4320 H         1 <0>         0.1126
     46 H14        -1.1530   -6.5100   -0.5503 H         1 <0>         0.1502
     47 H15        -1.7706   -4.9778    0.1125 H         1 <0>         0.1434
     48 H16        -3.2034   -6.5018   -1.9573 H         1 <0>         0.1294
     49 H17        -3.6350   -4.9266   -1.2510 H         1 <0>         0.1313
     50 H18        -4.7229   -5.2424   -3.4575 H         1 <0>         0.1132
     51 H19        -3.5594   -3.8952   -3.5056 H         1 <0>         0.0880
     52 H20        -3.0554   -6.7509   -4.4633 H         1 <0>         0.0822
     53 H21        -3.2719   -5.3160   -5.4964 H         1 <0>         0.0949
     54 H22        -0.8575   -5.8929   -5.1713 H         1 <0>         0.1125
     55 H23        -1.2584   -4.2824   -4.5258 H         1 <0>         0.0879
     56 H24         0.1381   -5.5616   -2.9238 H         1 <0>         0.1273
     57 H25        -1.0791   -6.8593   -2.8991 H         1 <0>         0.1307
     58 H26        -1.5693   -4.0717   -2.1270 H         1 <0>         0.4292
@<TRIPOS>BOND
     1    1    5 2
     2    1    2 1
     3    1   33 1
     4    2    3 2
     5    2   34 1
     6    3    4 1
     7    3    6 1
     8    4    5 1
     9    5   35 1
    10    6   14 1
    11    6    7 2
    12    7    8 1
    13    7   16 1
    14    8   13 ar
    15    8    9 ar
    16    9   10 ar
    17    9   36 1
    18   10   11 ar
    19   10   37 1
    20   11   12 ar
    21   11   15 1
    22   12   13 ar
    23   12   38 1
    24   13   14 1
    25   15   39 1
    26   16   17 2
    27   16   18 1
    28   18   23 ar
    29   18   19 ar
    30   19   20 ar
    31   19   40 1
    32   20   21 ar
    33   20   41 1
    34   21   22 ar
    35   21   24 1
    36   22   23 ar
    37   22   42 1
    38   23   43 1
    39   24   25 1
    40   25   26 1
    41   25   44 1
    42   25   45 1
    43   26   27 1
    44   26   46 1
    45   26   47 1
    46   27   32 1
    47   27   28 1
    48   27   58 1
    49   28   29 1
    50   28   48 1
    51   28   49 1
    52   29   30 1
    53   29   50 1
    54   29   51 1
    55   30   31 1
    56   30   52 1
    57   30   53 1
    58   31   32 1
    59   31   54 1
    60   31   55 1
    61   32   56 1
    62   32   57 1
