@<TRIPOS>MOLECULE
CHEMBL98892
   59    63     0     0     0
SMALL
USER_CHARGES

@<TRIPOS>ATOM
      1 C1         -0.0167    1.3796    0.0096 C.ar      1 <0>        -0.1124
      2 C2          1.1681    2.0946    0.0022 C.ar      1 <0>        -0.1145
      3 C3          2.3774    1.4317   -0.0130 C.ar      1 <0>        -0.1002
      4 C4          2.4043    0.0345   -0.0208 C.ar      1 <0>        -0.0506
      5 C5          1.2037   -0.6807   -0.0131 C.ar      1 <0>        -0.1076
      6 C6          0.0021   -0.0041    0.0020 C.ar      1 <0>        -0.1206
      7 C7          3.6924   -0.6812   -0.0374 C.2       1 <0>        -0.1222
      8 C8          4.5285   -0.5872    1.0149 C.2       1 <0>        -0.0667
      9 C9          5.8214   -1.2902    0.9414 C.ar      1 <0>        -0.1456
     10 C10         6.6085   -1.4806    2.0755 C.ar      1 <0>        -0.0505
     11 C11         7.8061   -2.1566    1.9681 C.ar      1 <0>        -0.1714
     12 C12         8.2257   -2.6471    0.7371 C.ar      1 <0>         0.1500
     13 C13         7.4495   -2.4560   -0.3982 C.ar      1 <0>        -0.1746
     14 C14         6.2520   -1.7740   -0.3043 C.ar      1 <0>         0.1457
     15 O1          5.4897   -1.5385   -1.4025 O.3       1 <0>        -0.2928
     16 C15         4.0708   -1.5223   -1.2281 C.3       1 <0>         0.1849
     17 C16         3.5755   -2.9301   -1.0185 C.ar      1 <0>        -0.1297
     18 C17         4.2864   -3.7987   -0.2111 C.ar      1 <0>        -0.0675
     19 C18         3.8348   -5.0898   -0.0176 C.ar      1 <0>        -0.1371
     20 C19         2.6667   -5.5145   -0.6340 C.ar      1 <0>         0.1182
     21 C20         1.9550   -4.6409   -1.4433 C.ar      1 <0>        -0.2004
     22 C21         2.4081   -3.3491   -1.6293 C.ar      1 <0>        -0.0613
     23 O2          2.2205   -6.7843   -0.4456 O.3       1 <0>        -0.3276
     24 C22         1.0108   -7.1523   -1.1114 C.3       1 <0>         0.0265
     25 C23         0.6698   -8.6071   -0.7822 C.3       1 <0>         0.0038
     26 N1          0.3766   -8.7288    0.6521 N.4       1 <0>        -0.3959
     27 C24        -0.8951   -8.0330    0.9757 C.3       1 <0>        -0.0106
     28 C25        -1.3386   -8.7029    2.3005 C.3       1 <0>        -0.1447
     29 C26        -0.9308  -10.1798    2.0944 C.3       1 <0>        -0.1451
     30 C27         0.1623  -10.1477    1.0102 C.3       1 <0>        -0.0087
     31 O3          9.4034   -3.3178    0.6441 O.3       1 <0>        -0.4918
     32 H1         -0.9607    1.9041    0.0260 H         1 <0>         0.1250
     33 H2          1.1457    3.1743    0.0078 H         1 <0>         0.1279
     34 H3          3.3013    1.9910   -0.0191 H         1 <0>         0.1261
     35 H4          1.2168   -1.7606   -0.0194 H         1 <0>         0.1195
     36 H5         -0.9266   -0.5554    0.0083 H         1 <0>         0.1224
     37 H6          4.2587   -0.0121    1.8883 H         1 <0>         0.1387
     38 H7          6.2830   -1.1008    3.0326 H         1 <0>         0.1379
     39 H8          8.4200   -2.3056    2.8441 H         1 <0>         0.1376
     40 H9          7.7811   -2.8393   -1.3518 H         1 <0>         0.1423
     41 H10         3.6050   -1.1083   -2.1224 H         1 <0>         0.1321
     42 H11         5.1957   -3.4676    0.2685 H         1 <0>         0.1388
     43 H12         4.3907   -5.7682    0.6126 H         1 <0>         0.1338
     44 H13         1.0454   -4.9691   -1.9242 H         1 <0>         0.1306
     45 H14         1.8521   -2.6673   -2.2557 H         1 <0>         0.1346
     46 H15         0.2005   -6.5046   -0.7769 H         1 <0>         0.0856
     47 H16         1.1414   -7.0445   -2.1881 H         1 <0>         0.1090
     48 H17        -0.2024   -8.9152   -1.3588 H         1 <0>         0.1490
     49 H18         1.5166   -9.2450   -1.0353 H         1 <0>         0.1415
     50 H19        -0.7236   -6.9666    1.1225 H         1 <0>         0.1330
     51 H20        -1.6352   -8.2005    0.1933 H         1 <0>         0.1351
     52 H21        -0.8070   -8.2707    3.1482 H         1 <0>         0.0983
     53 H22        -2.4168   -8.6157    2.4348 H         1 <0>         0.1175
     54 H23        -0.5331  -10.5952    3.0204 H         1 <0>         0.1058
     55 H24        -1.7852  -10.7642    1.7530 H         1 <0>         0.1046
     56 H25        -0.1672  -10.7061    0.1341 H         1 <0>         0.1316
     57 H26         1.0856  -10.5756    1.4010 H         1 <0>         0.1330
     58 H27         9.3240   -4.2723    0.7768 H         1 <0>         0.3961
     59 H28         1.1336   -8.3431    1.1964 H         1 <0>         0.4334
@<TRIPOS>BOND
     1    1    6 ar
     2    1    2 ar
     3    1   32 1
     4    2    3 ar
     5    2   33 1
     6    3    4 ar
     7    3   34 1
     8    4    5 ar
     9    4    7 1
    10    5    6 ar
    11    5   35 1
    12    6   36 1
    13    7   16 1
    14    7    8 2
    15    8    9 1
    16    8   37 1
    17    9   14 ar
    18    9   10 ar
    19   10   11 ar
    20   10   38 1
    21   11   12 ar
    22   11   39 1
    23   12   13 ar
    24   12   31 1
    25   13   14 ar
    26   13   40 1
    27   14   15 1
    28   15   16 1
    29   16   17 1
    30   16   41 1
    31   17   22 ar
    32   17   18 ar
    33   18   19 ar
    34   18   42 1
    35   19   20 ar
    36   19   43 1
    37   20   21 ar
    38   20   23 1
    39   21   22 ar
    40   21   44 1
    41   22   45 1
    42   23   24 1
    43   24   25 1
    44   24   46 1
    45   24   47 1
    46   25   26 1
    47   25   48 1
    48   25   49 1
    49   26   30 1
    50   26   27 1
    51   26   59 1
    52   27   28 1
    53   27   50 1
    54   27   51 1
    55   28   29 1
    56   28   52 1
    57   28   53 1
    58   29   30 1
    59   29   54 1
    60   29   55 1
    61   30   56 1
    62   30   57 1
    63   31   58 1
