@<TRIPOS>MOLECULE
CHEMBL58486
   53    55     0     0     0
SMALL
USER_CHARGES

@<TRIPOS>ATOM
      1 C1         -0.0184    1.5028    0.0103 C.3       1 <0>        -0.1187
      2 C2          0.0021   -0.0041    0.0020 C.ar      1 <0>        -0.1009
      3 C3          0.0057   -0.6863   -1.1964 C.ar      1 <0>        -0.0535
      4 C4          0.0246   -2.0801   -1.2032 C.ar      1 <0>        -0.1121
      5 C5          0.0398   -2.7803    0.0026 C.ar      1 <0>        -0.0856
      6 C6          0.0361   -2.0927    1.1974 C.ar      1 <0>        -0.1329
      7 C7          0.0230   -0.7039    1.2009 C.ar      1 <0>         0.1543
      8 O1          0.0249   -0.0290    2.3798 O.3       1 <0>        -0.4880
      9 C8          0.0281   -2.8168   -2.4901 C.ar      1 <0>         0.2476
     10 C9          0.0181   -2.1095   -3.6869 C.ar      1 <0>        -0.1758
     11 C10         0.0220   -2.8148   -4.8927 C.ar      1 <0>         0.1339
     12 C11         0.0357   -4.2098   -4.8451 C.ar      1 <0>        -0.2191
     13 C12         0.0451   -4.8451   -3.6096 C.ar      1 <0>         0.4572
     14 N1          0.0461   -4.1448   -2.4865 N.ar      1 <0>        -0.5199
     15 N2          0.0583   -6.2342   -3.5522 N.pl3     1 <0>        -0.5869
     16 C13         0.0682   -6.9136   -2.2544 C.3       1 <0>         0.0500
     17 C14         0.0623   -7.0184   -4.7897 C.3       1 <0>         0.1112
     18 C15         1.5062   -7.2778   -5.2243 C.3       1 <0>        -0.1173
     19 C16         2.2014   -8.1589   -4.1845 C.3       1 <0>        -0.1573
     20 C17         1.5111   -7.9878   -6.5796 C.3       1 <0>        -0.1514
     21 C18         0.0112   -2.0985   -6.1924 C.ar      1 <0>        -0.1016
     22 C19         0.0095   -2.8166   -7.3864 C.ar      1 <0>        -0.0784
     23 C20        -0.0005   -2.1454   -8.5924 C.ar      1 <0>        -0.1196
     24 C21        -0.0083   -0.7624   -8.6170 C.ar      1 <0>        -0.0775
     25 C22        -0.0061   -0.0446   -7.4346 C.ar      1 <0>        -0.1191
     26 C23        -0.0029   -0.7056   -6.2230 C.ar      1 <0>        -0.0783
     27 H1          1.0042    1.8801    0.0026 H         1 <0>         0.0838
     28 H2         -0.5455    1.8639   -0.8728 H         1 <0>         0.0751
     29 H3         -0.5286    1.8543    0.9071 H         1 <0>         0.0778
     30 H4         -0.0065   -0.1413   -2.1287 H         1 <0>         0.1438
     31 H5          0.0541   -3.8602    0.0004 H         1 <0>         0.1230
     32 H6          0.0478   -2.6344    2.1316 H         1 <0>         0.1473
     33 H7         -0.8578    0.1543    2.7295 H         1 <0>         0.4046
     34 H8          0.0072   -1.0295   -3.6845 H         1 <0>         0.1772
     35 H9          0.0387   -4.7880   -5.7573 H         1 <0>         0.1779
     36 H10        -0.9570   -7.0918   -1.9297 H         1 <0>         0.0849
     37 H11         0.5908   -7.8657   -2.3467 H         1 <0>         0.1122
     38 H12         0.5781   -6.2889   -1.5211 H         1 <0>         0.0695
     39 H13        -0.4421   -7.9694   -4.6188 H         1 <0>         0.1075
     40 H14        -0.4588   -6.4660   -5.5716 H         1 <0>         0.0961
     41 H15         2.0361   -6.3290   -5.3093 H         1 <0>         0.0772
     42 H16         1.6715   -9.1076   -4.0995 H         1 <0>         0.0634
     43 H17         3.2300   -8.3437   -4.4941 H         1 <0>         0.0668
     44 H18         2.1979   -7.6530   -3.2190 H         1 <0>         0.0530
     45 H19         1.0158   -7.3601   -7.3204 H         1 <0>         0.0610
     46 H20         2.5397   -8.1726   -6.8893 H         1 <0>         0.0690
     47 H21         0.9812   -8.9365   -6.4946 H         1 <0>         0.0640
     48 H22         0.0163   -3.8965   -7.3684 H         1 <0>         0.1297
     49 H23        -0.0018   -2.7010   -9.5185 H         1 <0>         0.1370
     50 H24        -0.0157   -0.2412   -9.5628 H         1 <0>         0.1363
     51 H25        -0.0115    1.0351   -7.4596 H         1 <0>         0.1376
     52 H26        -0.0061   -0.1442   -5.3004 H         1 <0>         0.1318
     53 H27         0.0568   -4.6142   -1.6377 H         1 <0>         0.4324
@<TRIPOS>BOND
     1    1    2 1
     2    1   27 1
     3    1   28 1
     4    1   29 1
     5    2    7 ar
     6    2    3 ar
     7    3    4 ar
     8    3   30 1
     9    4    5 ar
    10    4    9 1
    11    5    6 ar
    12    5   31 1
    13    6    7 ar
    14    6   32 1
    15    7    8 1
    16    8   33 1
    17    9   14 ar
    18    9   10 ar
    19   10   11 ar
    20   10   34 1
    21   11   12 ar
    22   11   21 1
    23   12   13 ar
    24   12   35 1
    25   13   14 ar
    26   13   15 1
    27   14   53 1
    28   15   16 1
    29   15   17 1
    30   16   36 1
    31   16   37 1
    32   16   38 1
    33   17   18 1
    34   17   39 1
    35   17   40 1
    36   18   19 1
    37   18   20 1
    38   18   41 1
    39   19   42 1
    40   19   43 1
    41   19   44 1
    42   20   45 1
    43   20   46 1
    44   20   47 1
    45   21   26 ar
    46   21   22 ar
    47   22   23 ar
    48   22   48 1
    49   23   24 ar
    50   23   49 1
    51   24   25 ar
    52   24   50 1
    53   25   26 ar
    54   25   51 1
    55   26   52 1
