@<TRIPOS>MOLECULE
CHEMBL296226
   67    72     0     0     0
SMALL
USER_CHARGES

@<TRIPOS>ATOM
      1 C1          4.1002   -3.9597   -7.4915 C.ar      1 <0>        -0.1074
      2 C2          4.4585   -2.6737   -7.0916 C.ar      1 <0>        -0.1138
      3 C3          4.8385   -2.4196   -5.8098 C.ar      1 <0>        -0.1022
      4 C4          4.8706   -3.4680   -4.8724 C.ar      1 <0>        -0.0529
      5 C5          5.2568   -3.2404   -3.5434 C.ar      1 <0>        -0.0706
      6 C6          5.2756   -4.2990   -2.6484 C.ar      1 <0>        -0.0265
      7 C7          4.9114   -5.5932   -3.0657 C.ar      1 <0>        -0.0965
      8 C8          4.5353   -5.8305   -4.3475 C.ar      1 <0>        -0.0971
      9 C9          4.5055   -4.7765   -5.2796 C.ar      1 <0>        -0.0406
     10 C10         4.1195   -4.9988   -6.6118 C.ar      1 <0>        -0.1089
     11 C11         5.6806   -4.0678   -1.2493 C.2       1 <0>        -0.0564
     12 C12         5.0502   -4.4955   -0.0885 C.2       1 <0>        -0.1628
     13 C13         5.6563   -4.1338    1.1949 C.ar      1 <0>        -0.0744
     14 C14         5.2032   -4.4504    2.4956 C.ar      1 <0>        -0.0605
     15 C15         5.8877   -4.0337    3.5944 C.ar      1 <0>        -0.1358
     16 C16         7.0549   -3.2838    3.4791 C.ar      1 <0>         0.1389
     17 C17         7.5291   -2.9551    2.2192 C.ar      1 <0>        -0.1008
     18 C18         6.8384   -3.3749    1.1015 C.ar      1 <0>        -0.1021
     19 S1          7.1006   -3.1790   -0.6423 S.3       1 <0>         0.0993
     20 O1          7.7224   -2.8777    4.5913 O.3       1 <0>        -0.4905
     21 C19         3.8177   -5.2830   -0.1455 C.2       1 <0>         0.4639
     22 O2          3.8694   -6.4990   -0.1010 O.2       1 <0>        -0.4303
     23 C20         2.5114   -4.6030   -0.2570 C.ar      1 <0>        -0.1816
     24 C21         2.4551   -3.2163   -0.4202 C.ar      1 <0>        -0.0190
     25 C22         1.2351   -2.5861   -0.5242 C.ar      1 <0>        -0.1524
     26 C23         0.0607   -3.3274   -0.4667 C.ar      1 <0>         0.1477
     27 C24         0.1124   -4.7068   -0.3040 C.ar      1 <0>        -0.2156
     28 C25         1.3286   -5.3453   -0.2054 C.ar      1 <0>        -0.0170
     29 O3         -1.1398   -2.7025   -0.5692 O.3       1 <0>        -0.3241
     30 C26        -2.3068   -3.5244   -0.5021 C.3       1 <0>         0.0229
     31 C27        -3.5550   -2.6496   -0.6349 C.3       1 <0>        -0.0009
     32 N1         -3.5713   -2.0178   -1.9610 N.4       1 <0>        -0.3846
     33 C28        -4.6805   -1.0590   -2.0309 C.3       1 <0>        -0.0070
     34 C29        -4.6532   -0.3392   -3.3810 C.3       1 <0>        -0.1467
     35 C30        -4.7952   -1.3693   -4.5053 C.3       1 <0>        -0.1389
     36 C31        -3.6760   -2.4068   -4.3780 C.3       1 <0>        -0.1454
     37 C32        -3.7395   -3.0499   -2.9910 C.3       1 <0>        -0.0136
     38 H1          3.7983   -4.1340   -8.5137 H         1 <0>         0.1267
     39 H2          4.4347   -1.8671   -7.8095 H         1 <0>         0.1270
     40 H3          5.1143   -1.4183   -5.5138 H         1 <0>         0.1303
     41 H4          5.5376   -2.2489   -3.2201 H         1 <0>         0.1351
     42 H5          4.9319   -6.4075   -2.3566 H         1 <0>         0.1297
     43 H6          4.2590   -6.8289   -4.6528 H         1 <0>         0.1342
     44 H7          3.8390   -5.9897   -6.9369 H         1 <0>         0.1301
     45 H8          4.3008   -5.0308    2.6187 H         1 <0>         0.1266
     46 H9          5.5181   -4.2895    4.5764 H         1 <0>         0.1390
     47 H10         8.4330   -2.3736    2.1132 H         1 <0>         0.1434
     48 H11         8.3920   -3.5040    4.8988 H         1 <0>         0.3999
     49 H12         3.3672   -2.6395   -0.4643 H         1 <0>         0.1410
     50 H13         1.1908   -1.5144   -0.6503 H         1 <0>         0.1407
     51 H14        -0.8023   -5.2792   -0.2591 H         1 <0>         0.1353
     52 H15         1.3680   -6.4177   -0.0839 H         1 <0>         0.1432
     53 H16        -2.2855   -4.2526   -1.3129 H         1 <0>         0.0891
     54 H17        -2.3291   -4.0463    0.4546 H         1 <0>         0.1124
     55 H18        -4.4456   -3.2667   -0.5154 H         1 <0>         0.1503
     56 H19        -3.5416   -1.8781    0.1350 H         1 <0>         0.1435
     57 H20        -5.6263   -1.5896   -1.9216 H         1 <0>         0.1294
     58 H21        -4.5799   -0.3285   -1.2281 H         1 <0>         0.1313
     59 H22        -5.4786    0.3709   -3.4316 H         1 <0>         0.1133
     60 H23        -3.7078    0.1920   -3.4912 H         1 <0>         0.0881
     61 H24        -5.7626   -1.8650   -4.4255 H         1 <0>         0.0822
     62 H25        -4.7196   -0.8682   -5.4704 H         1 <0>         0.0949
     63 H26        -3.8029   -3.1745   -5.1413 H         1 <0>         0.1125
     64 H27        -2.7104   -1.9185   -4.5090 H         1 <0>         0.0879
     65 H28        -2.9442   -3.7893   -2.8971 H         1 <0>         0.1271
     66 H29        -4.7054   -3.5381   -2.8612 H         1 <0>         0.1308
     67 H30        -2.6998   -1.5324   -2.1119 H         1 <0>         0.4293
@<TRIPOS>BOND
     1    1   10 ar
     2    1    2 ar
     3    1   38 1
     4    2    3 ar
     5    2   39 1
     6    3    4 ar
     7    3   40 1
     8    4    9 ar
     9    4    5 ar
    10    5    6 ar
    11    5   41 1
    12    6    7 ar
    13    6   11 1
    14    7    8 ar
    15    7   42 1
    16    8    9 ar
    17    8   43 1
    18    9   10 ar
    19   10   44 1
    20   11   19 1
    21   11   12 2
    22   12   13 1
    23   12   21 1
    24   13   18 ar
    25   13   14 ar
    26   14   15 ar
    27   14   45 1
    28   15   16 ar
    29   15   46 1
    30   16   17 ar
    31   16   20 1
    32   17   18 ar
    33   17   47 1
    34   18   19 1
    35   20   48 1
    36   21   22 2
    37   21   23 1
    38   23   28 ar
    39   23   24 ar
    40   24   25 ar
    41   24   49 1
    42   25   26 ar
    43   25   50 1
    44   26   27 ar
    45   26   29 1
    46   27   28 ar
    47   27   51 1
    48   28   52 1
    49   29   30 1
    50   30   31 1
    51   30   53 1
    52   30   54 1
    53   31   32 1
    54   31   55 1
    55   31   56 1
    56   32   37 1
    57   32   33 1
    58   32   67 1
    59   33   34 1
    60   33   57 1
    61   33   58 1
    62   34   35 1
    63   34   59 1
    64   34   60 1
    65   35   36 1
    66   35   61 1
    67   35   62 1
    68   36   37 1
    69   36   63 1
    70   36   64 1
    71   37   65 1
    72   37   66 1
