@<TRIPOS>MOLECULE
CHEMBL489
   59    61     0     0     0
SMALL
USER_CHARGES

@<TRIPOS>ATOM
      1 C1          0.8254   -1.1911    0.5458 C.3       1 <0>        -0.1467
      2 C2          0.0049   -0.0175    0.0070 C.3       1 <0>        -0.0930
      3 C3         -1.4365   -0.4345   -0.1329 C.2       1 <0>        -0.0412
      4 C4         -1.8945   -0.9031   -1.3201 C.2       1 <0>        -0.0542
      5 C5         -1.0207   -0.8745   -2.5135 C.ar      1 <0>        -0.0505
      6 C6         -0.5927    0.3462   -3.0382 C.ar      1 <0>        -0.0904
      7 C7          0.2219    0.3688   -4.1500 C.ar      1 <0>        -0.1432
      8 C8          0.6163   -0.8208   -4.7483 C.ar      1 <0>         0.1114
      9 C9          0.1922   -2.0372   -4.2295 C.ar      1 <0>        -0.1430
     10 C10        -0.6173   -2.0682   -3.1143 C.ar      1 <0>        -0.0865
     11 O1          1.4188   -0.7945   -5.8442 O.3       1 <0>        -0.4998
     12 C11        -3.2681   -1.4431   -1.4219 C.ar      1 <0>        -0.0476
     13 C12        -3.6201   -2.5973   -0.7200 C.ar      1 <0>        -0.0585
     14 C13        -4.9009   -3.0973   -0.8174 C.ar      1 <0>        -0.1372
     15 C14        -5.8406   -2.4544   -1.6126 C.ar      1 <0>         0.1115
     16 C15        -5.4943   -1.3060   -2.3124 C.ar      1 <0>        -0.1995
     17 C16        -4.2171   -0.7965   -2.2156 C.ar      1 <0>        -0.0636
     18 O2         -7.1019   -2.9506   -1.7064 O.3       1 <0>        -0.3290
     19 C17        -8.0181   -2.2400   -2.5417 C.3       1 <0>         0.0246
     20 C18        -9.3768   -2.9431   -2.5220 C.3       1 <0>        -0.0017
     21 N1         -9.9465   -2.8699   -1.1700 N.4       1 <0>        -0.3886
     22 C19       -10.2293   -1.4683   -0.8330 C.3       1 <0>        -0.0545
     23 C20       -11.1926   -3.6463   -1.1210 C.3       1 <0>        -0.0476
     24 C21        -2.3462   -0.3332    1.0179 C.ar      1 <0>        -0.0458
     25 C22        -3.4325    0.5475    0.9802 C.ar      1 <0>        -0.1002
     26 C23        -4.2808    0.6367    2.0634 C.ar      1 <0>        -0.1203
     27 C24        -4.0597   -0.1419    3.1862 C.ar      1 <0>        -0.1181
     28 C25        -2.9870   -1.0154    3.2316 C.ar      1 <0>        -0.1170
     29 C26        -2.1333   -1.1212    2.1541 C.ar      1 <0>        -0.1062
     30 H1          1.8836   -0.9299    0.5351 H         1 <0>         0.0624
     31 H2          0.5160   -1.4121    1.5673 H         1 <0>         0.0568
     32 H3          0.6611   -2.0675   -0.0812 H         1 <0>         0.0566
     33 H4          0.0747    0.8224    0.6983 H         1 <0>         0.0736
     34 H5          0.3931    0.2804   -0.9670 H         1 <0>         0.0821
     35 H6         -0.8996    1.2717   -2.5739 H         1 <0>         0.1277
     36 H7          0.5534    1.3128   -4.5565 H         1 <0>         0.1319
     37 H8          0.5005   -2.9602   -4.6979 H         1 <0>         0.1307
     38 H9         -0.9431   -3.0147   -2.7087 H         1 <0>         0.1250
     39 H10         2.3639   -0.8127   -5.6402 H         1 <0>         0.3948
     40 H11        -2.8897   -3.0979   -0.1017 H         1 <0>         0.1325
     41 H12        -5.1738   -3.9904   -0.2749 H         1 <0>         0.1321
     42 H13        -6.2278   -0.8088   -2.9298 H         1 <0>         0.1265
     43 H14        -3.9499    0.0993   -2.7563 H         1 <0>         0.1290
     44 H15        -8.1310   -1.2207   -2.1723 H         1 <0>         0.0864
     45 H16        -7.6360   -2.2163   -3.5623 H         1 <0>         0.1085
     46 H17       -10.0493   -2.4539   -3.2267 H         1 <0>         0.1492
     47 H18        -9.2496   -3.9876   -2.8066 H         1 <0>         0.1425
     48 H19       -10.9410   -1.0587   -1.5499 H         1 <0>         0.1246
     49 H20       -10.6520   -1.4139    0.1702 H         1 <0>         0.1273
     50 H21        -9.3047   -0.8922   -0.8694 H         1 <0>         0.1214
     51 H22       -10.9828   -4.6863   -1.3710 H         1 <0>         0.1248
     52 H23       -11.6153   -3.5919   -0.1177 H         1 <0>         0.1258
     53 H24       -11.9043   -3.2367   -1.8378 H         1 <0>         0.1231
     54 H25        -3.6059    1.1562    0.1051 H         1 <0>         0.1183
     55 H26        -5.1199    1.3161    2.0359 H         1 <0>         0.1196
     56 H27        -4.7277   -0.0673    4.0316 H         1 <0>         0.1206
     57 H28        -2.8211   -1.6193    4.1115 H         1 <0>         0.1239
     58 H29        -1.2997   -1.8070    2.1889 H         1 <0>         0.1249
     59 H30        -9.2877   -3.2489   -0.5064 H         1 <0>         0.4339
@<TRIPOS>BOND
     1    1    2 1
     2    1   30 1
     3    1   31 1
     4    1   32 1
     5    2    3 1
     6    2   33 1
     7    2   34 1
     8    3    4 2
     9    3   24 1
    10    4    5 1
    11    4   12 1
    12    5   10 ar
    13    5    6 ar
    14    6    7 ar
    15    6   35 1
    16    7    8 ar
    17    7   36 1
    18    8    9 ar
    19    8   11 1
    20    9   10 ar
    21    9   37 1
    22   10   38 1
    23   11   39 1
    24   12   17 ar
    25   12   13 ar
    26   13   14 ar
    27   13   40 1
    28   14   15 ar
    29   14   41 1
    30   15   16 ar
    31   15   18 1
    32   16   17 ar
    33   16   42 1
    34   17   43 1
    35   18   19 1
    36   19   20 1
    37   19   44 1
    38   19   45 1
    39   20   21 1
    40   20   46 1
    41   20   47 1
    42   21   22 1
    43   21   23 1
    44   21   59 1
    45   22   48 1
    46   22   49 1
    47   22   50 1
    48   23   51 1
    49   23   52 1
    50   23   53 1
    51   24   29 ar
    52   24   25 ar
    53   25   26 ar
    54   25   54 1
    55   26   27 ar
    56   26   55 1
    57   27   28 ar
    58   27   56 1
    59   28   29 ar
    60   28   57 1
    61   29   58 1
