@<TRIPOS>MOLECULE
CHEMBL490197
   53    57     0     0     0
SMALL
USER_CHARGES

@<TRIPOS>ATOM
      1 C1         -0.0167    1.3791    0.0096 C.ar      1 <0>        -0.1145
      2 C2          1.1686    2.0924    0.0021 C.ar      1 <0>        -0.1195
      3 C3          2.3774    1.4269   -0.0130 C.ar      1 <0>        -0.0909
      4 C4          2.4025    0.0330   -0.0207 C.ar      1 <0>        -0.0423
      5 C5          1.2049   -0.6804   -0.0131 C.ar      1 <0>        -0.1009
      6 C6          0.0021   -0.0041    0.0020 C.ar      1 <0>        -0.1184
      7 C7          3.6979   -0.6878   -0.0375 C.ar      1 <0>        -0.0456
      8 C8          4.0477   -1.4658   -1.1518 C.ar      1 <0>        -0.0169
      9 C9          5.2284   -2.1360   -1.1925 C.ar      1 <0>        -0.1134
     10 C10         6.1225   -2.0581   -0.1084 C.ar      1 <0>        -0.0184
     11 C11         7.3479   -2.7434   -0.1312 C.ar      1 <0>        -0.1406
     12 C12         8.1958   -2.6486    0.9359 C.ar      1 <0>         0.1194
     13 C13         7.8598   -1.8771    2.0525 C.ar      1 <0>        -0.1408
     14 C14         6.6804   -1.2014    2.1050 C.ar      1 <0>        -0.0715
     15 C15         5.7848   -1.2768    1.0249 C.ar      1 <0>        -0.0720
     16 C16         4.5587   -0.5835    1.0471 C.ar      1 <0>         0.1224
     17 O1          4.2197    0.1744    2.1204 O.3       1 <0>        -0.2511
     18 C17         3.5374   -0.4210    3.1307 C.ar      1 <0>         0.1064
     19 C18         3.2127   -1.7709    3.0466 C.ar      1 <0>        -0.1854
     20 C19         2.5205   -2.3795    4.0683 C.ar      1 <0>        -0.0785
     21 C20         2.1433   -1.6373    5.1946 C.ar      1 <0>        -0.0612
     22 C21         2.4732   -0.2784    5.2745 C.ar      1 <0>        -0.0837
     23 C22         3.1701    0.3192    4.2496 C.ar      1 <0>        -0.1377
     24 C23         1.4040   -2.2816    6.2877 C.2       1 <0>        -0.1141
     25 C24         1.0406   -1.5622    7.3750 C.2       1 <0>        -0.1665
     26 C25         0.3291   -2.1823    8.4272 C.2       1 <0>         0.4998
     27 O2          0.0412   -3.3711    8.3549 O.co2     1 <0>        -0.6956
     28 O3          0.0001   -1.5311    9.4115 O.co2     1 <0>        -0.6996
     29 O4          9.3808   -3.3129    0.9118 O.3       1 <0>        -0.4987
     30 C26         3.0998   -1.5593   -2.3196 C.3       1 <0>        -0.1231
     31 C27         3.4291   -2.5729   -3.4173 C.3       1 <0>        -0.1754
     32 C28         3.6054   -1.0761   -3.6803 C.3       1 <0>        -0.1645
     33 H1         -0.9603    1.9042    0.0260 H         1 <0>         0.1214
     34 H2          1.1479    3.1722    0.0078 H         1 <0>         0.1224
     35 H3          3.3021    1.9848   -0.0192 H         1 <0>         0.1208
     36 H4          1.2183   -1.7603   -0.0194 H         1 <0>         0.1215
     37 H5         -0.9264   -0.5557    0.0079 H         1 <0>         0.1236
     38 H6          5.4813   -2.7301   -2.0582 H         1 <0>         0.1349
     39 H7          7.6186   -3.3428   -0.9878 H         1 <0>         0.1355
     40 H8          8.5457   -1.8172    2.8846 H         1 <0>         0.1328
     41 H9          6.4331   -0.6094    2.9738 H         1 <0>         0.1359
     42 H10         3.5041   -2.3423    2.1776 H         1 <0>         0.1208
     43 H11         2.2682   -3.4275    4.0016 H         1 <0>         0.1267
     44 H12         2.1843    0.2983    6.1407 H         1 <0>         0.1354
     45 H13         3.4289    1.3659    4.3122 H         1 <0>         0.1286
     46 H14         1.1503   -3.3294    6.2240 H         1 <0>         0.1275
     47 H15         1.2944   -0.5144    7.4387 H         1 <0>         0.0997
     48 H16        10.1105   -2.8023    0.5352 H         1 <0>         0.3913
     49 H17         2.0481   -1.3940   -2.0858 H         1 <0>         0.1208
     50 H18         4.3314   -3.1721   -3.2949 H         1 <0>         0.0989
     51 H19         2.5939   -3.0748   -3.9059 H         1 <0>         0.0998
     52 H20         2.8862   -0.5932   -4.3419 H         1 <0>         0.0984
     53 H21         4.6237   -0.6905   -3.7309 H         1 <0>         0.0962
@<TRIPOS>BOND
     1    1    6 ar
     2    1    2 ar
     3    1   33 1
     4    2    3 ar
     5    2   34 1
     6    3    4 ar
     7    3   35 1
     8    4    5 ar
     9    4    7 1
    10    5    6 ar
    11    5   36 1
    12    6   37 1
    13    7   16 ar
    14    7    8 ar
    15    8    9 ar
    16    8   30 1
    17    9   10 ar
    18    9   38 1
    19   10   15 ar
    20   10   11 ar
    21   11   12 ar
    22   11   39 1
    23   12   13 ar
    24   12   29 1
    25   13   14 ar
    26   13   40 1
    27   14   15 ar
    28   14   41 1
    29   15   16 ar
    30   16   17 1
    31   17   18 1
    32   18   23 ar
    33   18   19 ar
    34   19   20 ar
    35   19   42 1
    36   20   21 ar
    37   20   43 1
    38   21   22 ar
    39   21   24 1
    40   22   23 ar
    41   22   44 1
    42   23   45 1
    43   24   25 2
    44   24   46 1
    45   25   26 1
    46   25   47 1
    47   26   27 2
    48   26   28 1
    49   29   48 1
    50   30   32 1
    51   30   31 1
    52   30   49 1
    53   31   32 1
    54   31   50 1
    55   31   51 1
    56   32   52 1
    57   32   53 1
