@<TRIPOS>MOLECULE
CHEMBL421368
   46    49     0     0     0
SMALL
USER_CHARGES

@<TRIPOS>ATOM
      1 C1         -0.0167    1.3781    0.0096 C.ar      1 <0>        -0.0621
      2 C2          1.1709    2.0855    0.0021 C.ar      1 <0>        -0.1387
      3 C3          2.3773    1.4107   -0.0130 C.ar      1 <0>        -0.0196
      4 C4          2.3960    0.0285   -0.0201 C.ar      1 <0>        -0.6773
      5 C5          1.2084   -0.6789   -0.0117 C.ar      1 <0>        -0.0213
      6 C6          0.0021   -0.0041    0.0020 C.ar      1 <0>        -0.1389
      7 S1          3.9337   -0.8316   -0.0405 S.o2      1 <0>         2.6914
      8 O1          3.6744   -2.1140   -0.5951 O.2       1 <0>        -0.9479
      9 O2          4.8903    0.0598   -0.5970 O.2       1 <0>        -0.9493
     10 N1          4.3776   -1.0785    1.5357 N.pl3     1 <0>        -0.9969
     11 C7          5.1885   -0.0960    2.2626 C.3       1 <0>         0.1633
     12 C8          4.6190    0.1107    3.6437 C.ar      1 <0>        -0.0745
     13 C9          5.1028    1.1762    4.3894 C.ar      1 <0>        -0.1414
     14 C10         4.6270    1.4114    5.6681 C.ar      1 <0>         0.1104
     15 C11         3.6601    0.5731    6.2047 C.ar      1 <0>        -0.1429
     16 C12         3.1789   -0.4814    5.4594 C.ar      1 <0>        -0.0904
     17 C13         3.6523   -0.7149    4.1733 C.ar      1 <0>        -0.0694
     18 C14         3.0586   -1.8706    3.4113 C.3       1 <0>        -0.0222
     19 C15         3.9689   -2.2902    2.2653 C.3       1 <0>         0.1247
     20 C16         2.8680   -3.0359    4.3477 C.ar      1 <0>        -0.0887
     21 C17         3.9571   -3.5800    5.0031 C.ar      1 <0>        -0.0880
     22 C18         3.7850   -4.6485    5.8616 C.ar      1 <0>        -0.1413
     23 C19         2.5180   -5.1754    6.0662 C.ar      1 <0>         0.1075
     24 C20         1.4268   -4.6274    5.4077 C.ar      1 <0>        -0.1426
     25 C21         1.6034   -3.5556    4.5542 C.ar      1 <0>        -0.0955
     26 O3          2.3462   -6.2268    6.9099 O.3       1 <0>        -0.4999
     27 O4          5.1043    2.4568    6.3936 O.3       1 <0>        -0.4983
     28 H1         -0.9591    1.9053    0.0259 H         1 <0>         0.1317
     29 H2          1.1563    3.1654    0.0076 H         1 <0>         0.1335
     30 H3          3.3051    1.9634   -0.0196 H         1 <0>         0.1386
     31 H4          1.2231   -1.7588   -0.0176 H         1 <0>         0.1395
     32 H5         -0.9258   -0.5567    0.0082 H         1 <0>         0.1339
     33 H6          6.2129   -0.4598    2.3434 H         1 <0>         0.0939
     34 H7          5.1821    0.8506    1.7222 H         1 <0>         0.1011
     35 H8          5.8561    1.8263    3.9695 H         1 <0>         0.1329
     36 H9          3.2863    0.7463    7.2031 H         1 <0>         0.1289
     37 H10         2.4270   -1.1334    5.8789 H         1 <0>         0.1268
     38 H11         2.0906   -1.5742    3.0074 H         1 <0>         0.0958
     39 H12         3.4294   -2.9597    1.5954 H         1 <0>         0.1050
     40 H13         4.8490   -2.7957    2.6629 H         1 <0>         0.0892
     41 H14         4.9432   -3.1695    4.8435 H         1 <0>         0.1269
     42 H15         4.6361   -5.0736    6.3728 H         1 <0>         0.1298
     43 H16         0.4395   -5.0359    5.5653 H         1 <0>         0.1300
     44 H17         0.7537   -3.1259    4.0447 H         1 <0>         0.1279
     45 H18         2.1723   -5.9715    7.8263 H         1 <0>         0.3921
     46 H19         4.6090    3.2784    6.2723 H         1 <0>         0.3921
@<TRIPOS>BOND
     1    1    6 ar
     2    1    2 ar
     3    1   28 1
     4    2    3 ar
     5    2   29 1
     6    3    4 ar
     7    3   30 1
     8    4    5 ar
     9    4    7 1
    10    5    6 ar
    11    5   31 1
    12    6   32 1
    13    7    8 2
    14    7    9 2
    15    7   10 1
    16   10   19 1
    17   10   11 1
    18   11   12 1
    19   11   33 1
    20   11   34 1
    21   12   17 ar
    22   12   13 ar
    23   13   14 ar
    24   13   35 1
    25   14   15 ar
    26   14   27 1
    27   15   16 ar
    28   15   36 1
    29   16   17 ar
    30   16   37 1
    31   17   18 1
    32   18   19 1
    33   18   20 1
    34   18   38 1
    35   19   39 1
    36   19   40 1
    37   20   25 ar
    38   20   21 ar
    39   21   22 ar
    40   21   41 1
    41   22   23 ar
    42   22   42 1
    43   23   24 ar
    44   23   26 1
    45   24   25 ar
    46   24   43 1
    47   25   44 1
    48   26   45 1
    49   27   46 1
