@<TRIPOS>MOLECULE
CHEMBL181862
   61    66     0     0     0
SMALL
USER_CHARGES

@<TRIPOS>ATOM
      1 C1          1.1631   -0.6117   -0.4390 C.ar      1 <0>        -0.0873
      2 C2          2.3518    0.0921   -0.4484 C.ar      1 <0>        -0.1389
      3 C3          2.3800    1.4096   -0.0147 C.ar      1 <0>         0.1156
      4 C4          1.2137    2.0170    0.4273 C.ar      1 <0>        -0.1462
      5 C5          0.0275    1.3089    0.4346 C.ar      1 <0>        -0.0838
      6 C6          0.0021   -0.0041    0.0020 C.ar      1 <0>        -0.0894
      7 C7         -1.2934   -0.7740    0.0107 C.3       1 <0>        -0.0643
      8 H1         -2.1334   -0.0869    0.1120 H         1 <0>         0.1382
      9 C8         -1.2969   -1.7821    1.1721 C.3       1 <0>         0.1495
     10 H2         -2.1779   -2.4197    1.0986 H         1 <0>         0.0961
     11 O1         -0.1255   -2.5802    1.0967 O.3       1 <0>        -0.3050
     12 C9          0.1551   -3.3416    0.0132 C.ar      1 <0>         0.1210
     13 C10         0.9986   -4.4351    0.1946 C.ar      1 <0>        -0.1140
     14 C11         1.3394   -5.2447   -0.8692 C.ar      1 <0>        -0.1062
     15 C12         0.8443   -4.9772   -2.1372 C.ar      1 <0>         0.0987
     16 C13        -0.0005   -3.8960   -2.3286 C.ar      1 <0>        -0.0901
     17 C14        -0.3494   -3.0850   -1.2568 C.ar      1 <0>        -0.1477
     18 S1         -1.4568   -1.7323   -1.5285 S.3       1 <0>        -0.0840
     19 O2          1.1866   -5.7716   -3.1864 O.3       1 <0>        -0.4915
     20 C15        -1.3198   -1.0400    2.4835 C.ar      1 <0>        -0.1044
     21 C16        -0.1522   -0.5024    2.9927 C.ar      1 <0>        -0.0349
     22 C17        -0.1704    0.1779    4.1949 C.ar      1 <0>        -0.1426
     23 C18        -1.3617    0.3218    4.8912 C.ar      1 <0>         0.1219
     24 C19        -2.5320   -0.2182    4.3779 C.ar      1 <0>        -0.2027
     25 C20        -2.5094   -0.8931    3.1727 C.ar      1 <0>        -0.0588
     26 O3         -1.3822    0.9902    6.0743 O.3       1 <0>        -0.3248
     27 C21        -2.6441    1.0995    6.7359 C.3       1 <0>         0.0277
     28 C22        -2.4698    1.8785    8.0411 C.3       1 <0>         0.0050
     29 N1         -2.0692    3.2589    7.7377 N.4       1 <0>        -0.3645
     30 C23        -0.6949    3.2806    7.1751 C.3       1 <0>        -0.0040
     31 C24        -0.2234    4.7315    7.4464 C.3       1 <0>        -0.1263
     32 C25        -0.8324    5.0354    8.8354 C.3       1 <0>        -0.1371
     33 H3         -0.9018    6.0789    9.1428 H         1 <0>         0.1526
     34 C26        -2.0129    4.0573    8.9803 C.3       1 <0>        -0.0955
     35 H4         -2.9617    4.3854    9.4048 H         1 <0>         0.1839
     36 C27        -0.7653    3.9329    9.8958 C.3       1 <0>        -0.1165
     37 O4          3.5482    2.1039   -0.0225 O.3       1 <0>        -0.5000
     38 H5          1.1398   -1.6359   -0.7807 H         1 <0>         0.1323
     39 H6          3.2585   -0.3831   -0.7926 H         1 <0>         0.1314
     40 H7          1.2331    3.0424    0.7657 H         1 <0>         0.1293
     41 H8         -0.8807    1.7813    0.7787 H         1 <0>         0.1235
     42 H9          1.3899   -4.6512    1.1778 H         1 <0>         0.1413
     43 H10         1.9942   -6.0894   -0.7144 H         1 <0>         0.1430
     44 H11        -0.3883   -3.6831   -3.3139 H         1 <0>         0.1405
     45 H12         0.5878   -6.5179   -3.3264 H         1 <0>         0.3947
     46 H13         0.7750   -0.6147    2.4504 H         1 <0>         0.1385
     47 H14         0.7420    0.5970    4.5927 H         1 <0>         0.1344
     48 H15        -3.4607   -0.1075    4.9180 H         1 <0>         0.1315
     49 H16        -3.4210   -1.3098    2.7705 H         1 <0>         0.1344
     50 H17        -3.3483    1.6246    6.0906 H         1 <0>         0.0860
     51 H18        -3.0265    0.1028    6.9560 H         1 <0>         0.1102
     52 H19        -3.4123    1.8857    8.5886 H         1 <0>         0.1495
     53 H20        -1.7003    1.4021    8.6486 H         1 <0>         0.1383
     54 H21        -0.0559    2.5653    7.6930 H         1 <0>         0.1352
     55 H22        -0.7142    3.0762    6.1046 H         1 <0>         0.1452
     56 H23         0.8648    4.7836    7.4821 H         1 <0>         0.1215
     57 H24        -0.6192    5.4133    6.6937 H         1 <0>         0.1068
     58 H25        -0.0792    3.1049    9.7172 H         1 <0>         0.1179
     59 H26        -0.8806    4.2304   10.9381 H         1 <0>         0.1410
     60 H27         3.7178    2.5792   -0.8474 H         1 <0>         0.3956
     61 H28        -2.7185    3.6745    7.0868 H         1 <0>         0.4283
@<TRIPOS>BOND
     1    1    6 ar
     2    1    2 ar
     3    1   38 1
     4    2    3 ar
     5    2   39 1
     6    3    4 ar
     7    3   37 1
     8    4    5 ar
     9    4   40 1
    10    5    6 ar
    11    5   41 1
    12    6    7 1
    13    7    8 1
    14    7   18 1
    15    7    9 1
    16    9   10 1
    17    9   11 1
    18    9   20 1
    19   11   12 1
    20   12   17 ar
    21   12   13 ar
    22   13   14 ar
    23   13   42 1
    24   14   15 ar
    25   14   43 1
    26   15   16 ar
    27   15   19 1
    28   16   17 ar
    29   16   44 1
    30   17   18 1
    31   19   45 1
    32   20   25 ar
    33   20   21 ar
    34   21   22 ar
    35   21   46 1
    36   22   23 ar
    37   22   47 1
    38   23   24 ar
    39   23   26 1
    40   24   25 ar
    41   24   48 1
    42   25   49 1
    43   26   27 1
    44   27   28 1
    45   27   50 1
    46   27   51 1
    47   28   29 1
    48   28   52 1
    49   28   53 1
    50   29   34 1
    51   29   30 1
    52   29   61 1
    53   30   31 1
    54   30   54 1
    55   30   55 1
    56   31   32 1
    57   31   56 1
    58   31   57 1
    59   32   33 1
    60   32   36 1
    61   32   34 1
    62   34   35 1
    63   34   36 1
    64   36   58 1
    65   36   59 1
    66   37   60 1
