@<TRIPOS>MOLECULE
CHEMBL28211
   64    68     0     0     0
SMALL
USER_CHARGES

@<TRIPOS>ATOM
      1 C1         -0.0173    1.4248    0.0099 C.3       1 <0>         0.0260
      2 O1          0.0021   -0.0041    0.0020 O.3       1 <0>        -0.3142
      3 C2         -1.1999   -0.6373    0.0101 C.ar      1 <0>         0.1395
      4 C3         -2.3734    0.1059    0.0195 C.ar      1 <0>        -0.2128
      5 C4         -3.5955   -0.5329    0.0369 C.ar      1 <0>        -0.0639
      6 C5         -3.6492   -1.9248    0.0505 C.ar      1 <0>        -0.0842
      7 C6         -2.4683   -2.6701    0.0193 C.ar      1 <0>        -0.0288
      8 C7         -1.2507   -2.0253    0.0031 C.ar      1 <0>        -0.1481
      9 C8         -2.5352   -4.1737   -0.0275 C.3       1 <0>        -0.0817
     10 C9         -3.7209   -4.6753    0.7926 C.3       1 <0>        -0.0782
     11 C10        -4.9804   -3.9491    0.4054 C.2       1 <0>        -0.0587
     12 C11        -4.9467   -2.6346    0.0773 C.2       1 <0>        -0.0375
     13 C12        -6.1972   -1.9155   -0.2507 C.ar      1 <0>        -0.0472
     14 C13        -6.9345   -2.2736   -1.3806 C.ar      1 <0>        -0.0556
     15 C14        -8.0992   -1.6012   -1.6830 C.ar      1 <0>        -0.1358
     16 C15        -8.5392   -0.5685   -0.8653 C.ar      1 <0>         0.1115
     17 C16        -7.8084   -0.2093    0.2597 C.ar      1 <0>        -0.1997
     18 C17        -6.6458   -0.8808    0.5719 C.ar      1 <0>        -0.0716
     19 O2         -9.6874    0.0922   -1.1668 O.3       1 <0>        -0.3285
     20 C18       -10.0820    1.1437   -0.2833 C.3       1 <0>         0.0274
     21 C19       -11.3880    1.7655   -0.7817 C.3       1 <0>         0.0037
     22 N1        -12.4650    0.7693   -0.7058 N.4       1 <0>        -0.3956
     23 C20       -12.7873    0.4707    0.7131 C.3       1 <0>        -0.0104
     24 C21       -14.2259   -0.0996    0.6374 C.3       1 <0>        -0.1446
     25 C22       -14.8812    0.7608   -0.4672 C.3       1 <0>        -0.1449
     26 C23       -13.7069    1.3149   -1.2951 C.3       1 <0>        -0.0088
     27 C24        -6.2604   -4.6726    0.3826 C.ar      1 <0>        -0.0449
     28 C25        -7.2826   -4.3213    1.2707 C.ar      1 <0>        -0.1002
     29 C26        -8.4798   -5.0046    1.2430 C.ar      1 <0>        -0.1203
     30 C27        -8.6715   -6.0360    0.3402 C.ar      1 <0>        -0.1184
     31 C28        -7.6649   -6.3901   -0.5414 C.ar      1 <0>        -0.1159
     32 C29        -6.4643   -5.7122   -0.5310 C.ar      1 <0>        -0.1062
     33 H1          1.0053    1.8021    0.0021 H         1 <0>         0.1039
     34 H2         -0.5445    1.7859   -0.8732 H         1 <0>         0.0565
     35 H3         -0.5275    1.7763    0.9067 H         1 <0>         0.0567
     36 H4         -2.3287    1.1850    0.0135 H         1 <0>         0.1299
     37 H5         -4.5083    0.0443    0.0403 H         1 <0>         0.1248
     38 H6         -0.3359   -2.5991   -0.0111 H         1 <0>         0.1359
     39 H7         -2.6486   -4.4981   -1.0619 H         1 <0>         0.0843
     40 H8         -1.6132   -4.5889    0.3796 H         1 <0>         0.0876
     41 H9         -3.8533   -5.7428    0.6165 H         1 <0>         0.0842
     42 H10        -3.5214   -4.5088    1.8512 H         1 <0>         0.0837
     43 H11        -6.5928   -3.0763   -2.0173 H         1 <0>         0.1329
     44 H12        -8.6700   -1.8775   -2.5572 H         1 <0>         0.1321
     45 H13        -8.1538    0.5943    0.8933 H         1 <0>         0.1270
     46 H14        -6.0806   -0.6041    1.4496 H         1 <0>         0.1309
     47 H15       -10.2308    0.7400    0.7183 H         1 <0>         0.0848
     48 H16        -9.3038    1.9064   -0.2557 H         1 <0>         0.1076
     49 H17       -11.6424    2.6237   -0.1598 H         1 <0>         0.1481
     50 H18       -11.2650    2.0894   -1.8152 H         1 <0>         0.1411
     51 H19       -12.0993   -0.2729    1.1156 H         1 <0>         0.1332
     52 H20       -12.7653    1.3809    1.3124 H         1 <0>         0.1347
     53 H21       -14.2095   -1.1506    0.3488 H         1 <0>         0.0983
     54 H22       -14.7437    0.0325    1.5874 H         1 <0>         0.1173
     55 H23       -15.5278    0.1453   -1.0925 H         1 <0>         0.1056
     56 H24       -15.4496    1.5779   -0.0229 H         1 <0>         0.1044
     57 H25       -13.6961    2.4036   -1.2419 H         1 <0>         0.1313
     58 H26       -13.7988    0.9921   -2.3321 H         1 <0>         0.1329
     59 H27        -7.1343   -3.5172    1.9762 H         1 <0>         0.1175
     60 H28        -9.2700   -4.7346    1.9279 H         1 <0>         0.1183
     61 H29        -9.6114   -6.5677    0.3237 H         1 <0>         0.1205
     62 H30        -7.8220   -7.1965   -1.2424 H         1 <0>         0.1245
     63 H31        -5.6817   -5.9862   -1.2230 H         1 <0>         0.1244
     64 H32       -12.1932   -0.0749   -1.1869 H         1 <0>         0.4338
@<TRIPOS>BOND
     1    1    2 1
     2    1   33 1
     3    1   34 1
     4    1   35 1
     5    2    3 1
     6    3    8 ar
     7    3    4 ar
     8    4    5 ar
     9    4   36 1
    10    5    6 ar
    11    5   37 1
    12    6   12 1
    13    6    7 ar
    14    7    8 ar
    15    7    9 1
    16    8   38 1
    17    9   10 1
    18    9   39 1
    19    9   40 1
    20   10   11 1
    21   10   41 1
    22   10   42 1
    23   11   12 2
    24   11   27 1
    25   12   13 1
    26   13   18 ar
    27   13   14 ar
    28   14   15 ar
    29   14   43 1
    30   15   16 ar
    31   15   44 1
    32   16   17 ar
    33   16   19 1
    34   17   18 ar
    35   17   45 1
    36   18   46 1
    37   19   20 1
    38   20   21 1
    39   20   47 1
    40   20   48 1
    41   21   22 1
    42   21   49 1
    43   21   50 1
    44   22   26 1
    45   22   23 1
    46   22   64 1
    47   23   24 1
    48   23   51 1
    49   23   52 1
    50   24   25 1
    51   24   53 1
    52   24   54 1
    53   25   26 1
    54   25   55 1
    55   25   56 1
    56   26   57 1
    57   26   58 1
    58   27   32 ar
    59   27   28 ar
    60   28   29 ar
    61   28   59 1
    62   29   30 ar
    63   29   60 1
    64   30   31 ar
    65   30   61 1
    66   31   32 ar
    67   31   62 1
    68   32   63 1
