@<TRIPOS>MOLECULE
CHEMBL365779
   56    59     0     0     0
SMALL
USER_CHARGES

@<TRIPOS>ATOM
      1 C1          0.2093    1.2392    0.0011 C.ar      1 <0>        -0.1341
      2 C2          1.4333    1.8788   -0.0424 C.ar      1 <0>        -0.0483
      3 C3          2.5982    1.1398   -0.1286 C.ar      1 <0>        -0.1449
      4 C4          2.5417   -0.2424   -0.1716 C.ar      1 <0>         0.0252
      5 C5          1.3193   -0.8865   -0.1284 C.ar      1 <0>        -0.1961
      6 C6          0.1494   -0.1460   -0.0418 C.ar      1 <0>         0.1554
      7 O1         -1.0536   -0.7768    0.0013 O.3       1 <0>        -0.3178
      8 C7         -1.0394   -2.2049   -0.0470 C.3       1 <0>         0.0213
      9 C8         -2.4747   -2.7315    0.0120 C.3       1 <0>        -0.0017
     10 N1         -3.2102   -2.2827   -1.1778 N.4       1 <0>        -0.3846
     11 C9         -4.6241   -2.6545   -1.0463 C.3       1 <0>        -0.0078
     12 C10        -5.4099   -2.1186   -2.2449 C.3       1 <0>        -0.1467
     13 C11        -4.8398   -2.7205   -3.5325 C.3       1 <0>        -0.1407
     14 C12        -3.3474   -2.3893   -3.6220 C.3       1 <0>        -0.1448
     15 C13        -2.6379   -2.9152   -2.3724 C.3       1 <0>        -0.0136
     16 Cl1         4.0066   -1.1676   -0.2805 Cl        1 <0>        -0.0266
     17 C14         3.9317    1.8402   -0.1764 C.3       1 <0>         0.1572
     18 H1          4.5941    1.3562   -0.8941 H         1 <0>         0.1500
     19 C15         4.5783    1.8774    1.2232 C.3       1 <0>         0.1329
     20 H2          5.5633    1.4111    1.2022 H         1 <0>         0.1580
     21 N2          4.6930    3.3124    1.5193 N.pl3     1 <0>        -0.5994
     22 C16         4.2309    4.0041    0.5432 C.cat     1 <0>         0.5079
     23 N3          3.7597    3.2655   -0.5057 N.pl3     1 <0>        -0.6603
     24 C17         3.6928    1.1947    2.2335 C.ar      1 <0>        -0.1239
     25 C18         2.5480    1.8257    2.6871 C.ar      1 <0>         0.0143
     26 C19         1.7345    1.2011    3.6143 C.ar      1 <0>        -0.1269
     27 C20         2.0664   -0.0592    4.0895 C.ar      1 <0>         0.1668
     28 C21         3.2143   -0.6904    3.6332 C.ar      1 <0>        -0.1245
     29 C22         4.0225   -0.0648    2.7020 C.ar      1 <0>         0.0175
     30 Cl2         5.4554   -0.8572    2.1253 Cl        1 <0>        -0.0170
     31 O2          1.2683   -0.6745    5.0013 O.3       1 <0>        -0.4772
     32 Cl3         2.1331    3.4029    2.0921 Cl        1 <0>        -0.0523
     33 H3         -0.7001    1.8173    0.0730 H         1 <0>         0.1476
     34 H4          1.4798    2.9573   -0.0093 H         1 <0>         0.1450
     35 H5          1.2751   -1.9651   -0.1623 H         1 <0>         0.1475
     36 H6         -0.5701   -2.5324   -0.9747 H         1 <0>         0.0924
     37 H7         -0.4754   -2.5916    0.8018 H         1 <0>         0.1127
     38 H8         -2.4611   -3.8210    0.0412 H         1 <0>         0.1539
     39 H9         -2.9651   -2.3501    0.9076 H         1 <0>         0.1448
     40 H10        -4.7120   -3.7404   -1.0109 H         1 <0>         0.1316
     41 H11        -5.0275   -2.2281   -0.1279 H         1 <0>         0.1322
     42 H12        -6.4591   -2.3972   -2.1463 H         1 <0>         0.1158
     43 H13        -5.3229   -1.0327   -2.2811 H         1 <0>         0.0876
     44 H14        -4.9730   -3.8023   -3.5193 H         1 <0>         0.0841
     45 H15        -5.3591   -2.2987   -4.3931 H         1 <0>         0.0969
     46 H16        -2.9222   -2.8614   -4.5078 H         1 <0>         0.1138
     47 H17        -3.2175   -1.3090   -3.6868 H         1 <0>         0.0867
     48 H18        -1.5751   -2.6812   -2.4330 H         1 <0>         0.1245
     49 H19        -2.7682   -3.9955   -2.3087 H         1 <0>         0.1328
     50 H20         4.2162    5.0840    0.5486 H         1 <0>         0.2520
     51 H21         3.3774    3.6169   -1.3250 H         1 <0>         0.4637
     52 H22         0.8414    1.6942    3.9687 H         1 <0>         0.1568
     53 H23         3.4743   -1.6716    4.0020 H         1 <0>         0.1608
     54 H24         0.5735   -1.2217    4.6101 H         1 <0>         0.4044
     55 H25        -3.1345   -1.2800   -1.2604 H         1 <0>         0.4272
     56 H26         5.0645    3.6829    2.3352 H         1 <0>         0.4677
@<TRIPOS>BOND
     1    1    6 ar
     2    1    2 ar
     3    1   33 1
     4    2    3 ar
     5    2   34 1
     6    3    4 ar
     7    3   17 1
     8    4    5 ar
     9    4   16 1
    10    5    6 ar
    11    5   35 1
    12    6    7 1
    13    7    8 1
    14    8    9 1
    15    8   36 1
    16    8   37 1
    17    9   10 1
    18    9   38 1
    19    9   39 1
    20   10   15 1
    21   10   11 1
    22   10   55 1
    23   11   12 1
    24   11   40 1
    25   11   41 1
    26   12   13 1
    27   12   42 1
    28   12   43 1
    29   13   14 1
    30   13   44 1
    31   13   45 1
    32   14   15 1
    33   14   46 1
    34   14   47 1
    35   15   48 1
    36   15   49 1
    37   17   18 1
    38   17   23 1
    39   17   19 1
    40   19   20 1
    41   19   21 1
    42   19   24 1
    43   21   22 2
    44   21   56 1
    45   22   23 1
    46   22   50 1
    47   23   51 1
    48   24   29 ar
    49   24   25 ar
    50   25   26 ar
    51   25   32 1
    52   26   27 ar
    53   26   52 1
    54   27   28 ar
    55   27   31 1
    56   28   29 ar
    57   28   53 1
    58   29   30 1
    59   31   54 1
