@<TRIPOS>MOLECULE
CHEMBL318473
   54    59     0     0     0
SMALL
USER_CHARGES

@<TRIPOS>ATOM
      1 C1         -0.0156    1.3806    0.0309 C.ar      1 <0>        -0.1124
      2 C2          1.1700    2.0933    0.0453 C.ar      1 <0>        -0.1186
      3 C3          2.3786    1.4276    0.0269 C.ar      1 <0>        -0.1046
      4 C4          2.4033    0.0340   -0.0063 C.ar      1 <0>        -0.0582
      5 C5          1.2053   -0.6788   -0.0208 C.ar      1 <0>        -0.1047
      6 C6          0.0027   -0.0022   -0.0022 C.ar      1 <0>        -0.1188
      7 C7          3.6986   -0.6870   -0.0267 C.ar      1 <0>        -0.0062
      8 C8          4.8957    0.0296   -0.0068 C.ar      1 <0>        -0.1266
      9 C9          6.0988   -0.6387   -0.0252 C.ar      1 <0>        -0.0505
     10 C10         6.1210   -2.0356   -0.0639 C.ar      1 <0>        -0.1688
     11 C11         4.9213   -2.7522   -0.0838 C.ar      1 <0>        -0.0662
     12 C12         3.7195   -2.0818   -0.0599 C.ar      1 <0>        -0.1254
     13 C13         7.4119   -2.7542   -0.0842 C.2       1 <0>         0.4657
     14 O1          8.4543   -2.1313   -0.1815 O.2       1 <0>        -0.4137
     15 C14         7.4374   -4.1689    0.0096 C.2       1 <0>        -0.0425
     16 C15         8.5817   -4.9476    0.1089 C.2       1 <0>        -0.0181
     17 C16         8.1087   -6.3378    0.1801 C.ar      1 <0>        -0.1432
     18 C17         8.7490   -7.5733    0.2876 C.ar      1 <0>        -0.0335
     19 C18         8.0091   -8.7201    0.3312 C.ar      1 <0>        -0.1585
     20 C19         6.6183   -8.6625    0.2684 C.ar      1 <0>         0.1544
     21 C20         5.9681   -7.4457    0.1611 C.ar      1 <0>        -0.1448
     22 C21         6.7056   -6.2692    0.1165 C.ar      1 <0>         0.0922
     23 O2          6.3522   -4.9715    0.0224 O.3       1 <0>        -0.1684
     24 O3          5.8944   -9.8108    0.3123 O.3       1 <0>        -0.4903
     25 C22         9.9801   -4.4787    0.1371 C.ar      1 <0>        -0.0192
     26 C23        10.5970   -4.1834    1.3444 C.ar      1 <0>        -0.0867
     27 C24        11.9131   -3.7411    1.3774 C.ar      1 <0>        -0.1149
     28 C25        12.6340   -3.5848    0.2311 C.ar      1 <0>        -0.0947
     29 C26        12.0497   -3.8721   -1.0146 C.ar      1 <0>        -0.0502
     30 C27        10.7109   -4.3303   -1.0684 C.ar      1 <0>        -0.0217
     31 C28        10.1312   -4.6216   -2.3104 C.ar      1 <0>        -0.1061
     32 C29        10.8628   -4.4671   -3.4496 C.ar      1 <0>        -0.1105
     33 C30        12.1820   -4.0228   -3.3986 C.ar      1 <0>        -0.1162
     34 C31        12.7724   -3.7173   -2.2103 C.ar      1 <0>        -0.1031
     35 H1         -0.9591    1.9058    0.0499 H         1 <0>         0.1248
     36 H2          1.1497    3.1728    0.0707 H         1 <0>         0.1265
     37 H3          3.3036    1.9850    0.0379 H         1 <0>         0.1273
     38 H4          1.2183   -1.7584   -0.0469 H         1 <0>         0.1270
     39 H5         -0.9260   -0.5534   -0.0130 H         1 <0>         0.1264
     40 H6          4.8783    1.1090    0.0228 H         1 <0>         0.1343
     41 H7          7.0252   -0.0839   -0.0101 H         1 <0>         0.1384
     42 H8          4.9373   -3.8316   -0.1141 H         1 <0>         0.1472
     43 H9          2.7923   -2.6355   -0.0712 H         1 <0>         0.1333
     44 H10         9.8268   -7.6221    0.3359 H         1 <0>         0.1371
     45 H11         8.5042   -9.6763    0.4144 H         1 <0>         0.1420
     46 H12         4.8898   -7.4107    0.1123 H         1 <0>         0.1447
     47 H13         5.6474  -10.0861    1.2057 H         1 <0>         0.3991
     48 H14        10.0482   -4.2983    2.2674 H         1 <0>         0.1234
     49 H15        12.3734   -3.5166    2.3282 H         1 <0>         0.1280
     50 H16        13.6561   -3.2392    0.2802 H         1 <0>         0.1295
     51 H17         9.1094   -4.9672   -2.3646 H         1 <0>         0.1189
     52 H18        10.4137   -4.6927   -4.4056 H         1 <0>         0.1233
     53 H19        12.7411   -3.9088   -4.3155 H         1 <0>         0.1247
     54 H20        13.7957   -3.3727   -2.1854 H         1 <0>         0.1292
@<TRIPOS>BOND
     1    1    6 ar
     2    1    2 ar
     3    1   35 1
     4    2    3 ar
     5    2   36 1
     6    3    4 ar
     7    3   37 1
     8    4    5 ar
     9    4    7 1
    10    5    6 ar
    11    5   38 1
    12    6   39 1
    13    7   12 ar
    14    7    8 ar
    15    8    9 ar
    16    8   40 1
    17    9   10 ar
    18    9   41 1
    19   10   11 ar
    20   10   13 1
    21   11   12 ar
    22   11   42 1
    23   12   43 1
    24   13   14 2
    25   13   15 1
    26   15   23 1
    27   15   16 2
    28   16   17 1
    29   16   25 1
    30   17   22 ar
    31   17   18 ar
    32   18   19 ar
    33   18   44 1
    34   19   20 ar
    35   19   45 1
    36   20   21 ar
    37   20   24 1
    38   21   22 ar
    39   21   46 1
    40   22   23 1
    41   24   47 1
    42   25   30 ar
    43   25   26 ar
    44   26   27 ar
    45   26   48 1
    46   27   28 ar
    47   27   49 1
    48   28   29 ar
    49   28   50 1
    50   29   34 ar
    51   29   30 ar
    52   30   31 ar
    53   31   32 ar
    54   31   51 1
    55   32   33 ar
    56   32   52 1
    57   33   34 ar
    58   33   53 1
    59   34   54 1
