@<TRIPOS>MOLECULE
CHEMBL554789
   61    65     0     0     0
SMALL
USER_CHARGES

@<TRIPOS>ATOM
      1 C1          2.5559    3.0018    0.2206 C.ar      1 <0>        -0.1160
      2 C2          1.8728    1.8105    0.3792 C.ar      1 <0>        -0.1217
      3 C3          2.5302    0.6077    0.2005 C.ar      1 <0>        -0.1168
      4 C4          3.8706    0.5961   -0.1371 C.ar      1 <0>        -0.0763
      5 C5          4.5535    1.7874   -0.2965 C.ar      1 <0>        -0.1118
      6 C6          3.8965    2.9902   -0.1165 C.ar      1 <0>        -0.1207
      7 C7          4.5875   -0.7152   -0.3308 C.3       1 <0>        -0.0795
      8 H1          5.5455   -0.5412   -0.8208 H         1 <0>         0.1022
      9 C8          4.8170   -1.3850    1.0300 C.3       1 <0>         0.0686
     10 O1          3.5567   -1.5048    1.6912 O.3       1 <0>        -0.3027
     11 C9          2.5205   -2.0356    0.9912 C.ar      1 <0>         0.1609
     12 C10         1.4130   -2.4963    1.6945 C.ar      1 <0>        -0.1827
     13 C11         0.3348   -3.0395    1.0168 C.ar      1 <0>         0.1505
     14 C12         0.3610   -3.1235   -0.3684 C.ar      1 <0>        -0.1779
     15 C13         1.4617   -2.6678   -1.0650 C.ar      1 <0>        -0.0620
     16 C14         2.5435   -2.1260   -0.3900 C.ar      1 <0>        -0.1747
     17 C15         3.7312   -1.6494   -1.1892 C.3       1 <0>         0.0025
     18 H2          4.3284   -2.5074   -1.4978 H         1 <0>         0.1007
     19 C16         3.2508   -0.9086   -2.4104 C.ar      1 <0>        -0.0587
     20 C17         2.0307   -0.2578   -2.3869 C.ar      1 <0>        -0.0763
     21 C18         1.5871    0.4216   -3.5042 C.ar      1 <0>        -0.0898
     22 C19         2.3685    0.4514   -4.6530 C.ar      1 <0>        -0.0956
     23 C20         3.5942   -0.2033   -4.6728 C.ar      1 <0>        -0.1311
     24 C21         4.0337   -0.8764   -3.5501 C.ar      1 <0>        -0.0934
     25 S1          1.8063    1.3166   -6.0813 S.3       1 <0>        -0.0650
     26 C22         3.1352    1.0750   -7.2921 C.3       1 <0>        -0.1621
     27 C23         2.7710    1.7850   -8.5976 C.3       1 <0>         0.0150
     28 N1          3.8472    1.5894   -9.5781 N.4       1 <0>        -0.3926
     29 C24         3.8995    0.1675  -10.0044 C.3       1 <0>        -0.0100
     30 C25         4.6302    0.2332  -11.3691 C.3       1 <0>        -0.1450
     31 C26         4.0783    1.5348  -11.9945 C.3       1 <0>        -0.1450
     32 C27         3.5678    2.3680  -10.8042 C.3       1 <0>        -0.0078
     33 O2         -0.7464   -3.4898    1.7062 O.3       1 <0>        -0.4939
     34 H3          2.0412    3.9416    0.3557 H         1 <0>         0.1203
     35 H4          0.8255    1.8196    0.6429 H         1 <0>         0.1195
     36 H5          1.9966   -0.3230    0.3251 H         1 <0>         0.1369
     37 H6          5.6009    1.7783   -0.5600 H         1 <0>         0.1179
     38 H7          4.4301    3.9209   -0.2407 H         1 <0>         0.1203
     39 H8          5.2504   -2.3744    0.8839 H         1 <0>         0.0750
     40 H9          5.4903   -0.7738    1.6311 H         1 <0>         0.1156
     41 H10         1.3939   -2.4304    2.7724 H         1 <0>         0.1411
     42 H11        -0.4789   -3.5454   -0.9004 H         1 <0>         0.1334
     43 H12         1.4799   -2.7341   -2.1429 H         1 <0>         0.1293
     44 H13         1.4240   -0.2813   -1.4938 H         1 <0>         0.1394
     45 H14         0.6339    0.9290   -3.4854 H         1 <0>         0.1293
     46 H15         4.2041   -0.1823   -5.5639 H         1 <0>         0.1160
     47 H16         4.9879   -1.3820   -3.5634 H         1 <0>         0.1286
     48 H17         4.0639    1.4896   -6.8999 H         1 <0>         0.1085
     49 H18         3.2646    0.0095   -7.4819 H         1 <0>         0.1084
     50 H19         1.8424    1.3705   -8.9898 H         1 <0>         0.1402
     51 H20         2.6417    2.8506   -8.4078 H         1 <0>         0.1406
     52 H21         4.4697   -0.4273   -9.2909 H         1 <0>         0.1339
     53 H22         2.8938   -0.2350  -10.1255 H         1 <0>         0.1360
     54 H23         5.7087    0.3010  -11.2263 H         1 <0>         0.0984
     55 H24         4.3750   -0.6291  -11.9851 H         1 <0>         0.1177
     56 H25         4.8713    2.0690  -12.5177 H         1 <0>         0.1062
     57 H26         3.2591    1.3089  -12.6771 H         1 <0>         0.1050
     58 H27         2.4951    2.5356  -10.9012 H         1 <0>         0.1327
     59 H28         4.0935    3.3220  -10.7661 H         1 <0>         0.1342
     60 H29        -1.4280   -2.8193    1.8504 H         1 <0>         0.3970
     61 H30         4.7330    1.8681   -9.1834 H         1 <0>         0.4273
@<TRIPOS>BOND
     1    1    6 ar
     2    1    2 ar
     3    1   34 1
     4    2    3 ar
     5    2   35 1
     6    3    4 ar
     7    3   36 1
     8    4    5 ar
     9    4    7 1
    10    5    6 ar
    11    5   37 1
    12    6   38 1
    13    7    8 1
    14    7   17 1
    15    7    9 1
    16    9   10 1
    17    9   39 1
    18    9   40 1
    19   10   11 1
    20   11   16 ar
    21   11   12 ar
    22   12   13 ar
    23   12   41 1
    24   13   14 ar
    25   13   33 1
    26   14   15 ar
    27   14   42 1
    28   15   16 ar
    29   15   43 1
    30   16   17 1
    31   17   18 1
    32   17   19 1
    33   19   24 ar
    34   19   20 ar
    35   20   21 ar
    36   20   44 1
    37   21   22 ar
    38   21   45 1
    39   22   23 ar
    40   22   25 1
    41   23   24 ar
    42   23   46 1
    43   24   47 1
    44   25   26 1
    45   26   27 1
    46   26   48 1
    47   26   49 1
    48   27   28 1
    49   27   50 1
    50   27   51 1
    51   28   32 1
    52   28   29 1
    53   28   61 1
    54   29   30 1
    55   29   52 1
    56   29   53 1
    57   30   31 1
    58   30   54 1
    59   30   55 1
    60   31   32 1
    61   31   56 1
    62   31   57 1
    63   32   58 1
    64   32   59 1
    65   33   60 1
