@<TRIPOS>MOLECULE
CHEMBL346401
   70    73     0     0     0
SMALL
USER_CHARGES

@<TRIPOS>ATOM
      1 C1         -0.0178    1.4648    0.0101 C.3       1 <0>        -0.0467
      2 N1          0.0021   -0.0041    0.0020 N.4       1 <0>        -0.3862
      3 C2         -1.3762   -0.5105    0.0016 C.3       1 <0>        -0.0213
      4 C3         -1.3581   -2.0376   -0.1225 C.3       1 <0>         0.1075
      5 N2         -0.5114   -2.5826    0.9500 N.pl3     1 <0>        -0.5980
      6 C4          0.8341   -2.0147    1.1271 C.3       1 <0>         0.1074
      7 C5          0.7126   -0.4887    1.1922 C.3       1 <0>        -0.0211
      8 C6         -0.9665   -3.5975    1.7670 C.ar      1 <0>         0.6561
      9 N3         -0.1874   -4.0723    2.7340 N.ar      1 <0>        -0.6810
     10 C7         -0.6257   -5.0498    3.5209 C.ar      1 <0>         0.6585
     11 N4         -1.8433   -5.5526    3.3410 N.ar      1 <0>        -0.6597
     12 C8         -2.6223   -5.0776    2.3745 C.ar      1 <0>         0.6591
     13 N5         -2.1858   -4.0965    1.5906 N.ar      1 <0>        -0.6808
     14 N6         -3.8860   -5.5999    2.1874 N.pl3     1 <0>        -0.6820
     15 C9         -4.3688   -6.6779    3.0540 C.3       1 <0>         0.1407
     16 C10        -5.7875   -7.0707    2.6372 C.3       1 <0>        -0.0908
     17 C11        -6.2841   -8.1796    3.5287 C.ar      1 <0>        -0.0966
     18 C12        -6.0589   -9.4986    3.1803 C.ar      1 <0>        -0.0947
     19 C13        -6.5134  -10.5169    3.9956 C.ar      1 <0>        -0.1427
     20 C14        -7.1961  -10.2153    5.1651 C.ar      1 <0>         0.1096
     21 C15        -7.4204   -8.8911    5.5127 C.ar      1 <0>        -0.1430
     22 C16        -6.9593   -7.8763    4.6966 C.ar      1 <0>        -0.0950
     23 O1         -7.6447  -11.2153    5.9686 O.3       1 <0>        -0.4992
     24 N7          0.1832   -5.5430    4.5245 N.pl3     1 <0>        -0.6811
     25 C17        -0.2999   -6.6204    5.3918 C.3       1 <0>         0.1346
     26 C18         0.7828   -6.9782    6.4118 C.3       1 <0>        -0.1337
     27 C19         0.2782   -8.1034    7.3176 C.3       1 <0>        -0.1085
     28 C20         1.3610   -8.4612    8.3376 C.3       1 <0>        -0.0796
     29 C21         0.8640   -9.5694    9.2298 C.ar      1 <0>        -0.0860
     30 C22         0.1844   -9.2666   10.3949 C.ar      1 <0>        -0.1183
     31 C23        -0.2714  -10.2832   11.2132 C.ar      1 <0>        -0.1174
     32 C24        -0.0481  -11.6025   10.8663 C.ar      1 <0>        -0.1228
     33 C25         0.6307  -11.9053    9.7008 C.ar      1 <0>        -0.1173
     34 C26         1.0828  -10.8888    8.8802 C.ar      1 <0>        -0.1182
     35 H1          1.0047    1.8421    0.0024 H         1 <0>         0.1253
     36 H2         -0.5450    1.8259   -0.8730 H         1 <0>         0.1254
     37 H3         -0.5280    1.8163    0.9069 H         1 <0>         0.1211
     38 H4         -1.8678   -0.2272    0.9323 H         1 <0>         0.1318
     39 H5         -1.9199   -0.0838   -0.8413 H         1 <0>         0.1443
     40 H6         -2.3718   -2.4253   -0.0215 H         1 <0>         0.1418
     41 H7         -0.9491   -2.3215   -1.0921 H         1 <0>         0.0923
     42 H8          1.2698   -2.3873    2.0542 H         1 <0>         0.1417
     43 H9          1.4645   -2.2963    0.2836 H         1 <0>         0.0923
     44 H10         1.7080   -0.0460    1.2266 H         1 <0>         0.1443
     45 H11         0.1578   -0.2061    2.0868 H         1 <0>         0.1318
     46 H12        -4.4546   -5.2532    1.4820 H         1 <0>         0.4167
     47 H13        -3.7104   -7.5416    2.9607 H         1 <0>         0.0742
     48 H14        -4.3756   -6.3364    4.0891 H         1 <0>         0.0739
     49 H15        -6.4459   -6.2071    2.7306 H         1 <0>         0.0814
     50 H16        -5.7807   -7.4122    1.6021 H         1 <0>         0.0819
     51 H17        -5.5274   -9.7328    2.2698 H         1 <0>         0.1269
     52 H18        -6.3379  -11.5470    3.7226 H         1 <0>         0.1308
     53 H19        -7.9516   -8.6537    6.4226 H         1 <0>         0.1306
     54 H20        -7.1298   -6.8452    4.9690 H         1 <0>         0.1265
     55 H21        -7.0102  -11.4918    6.6439 H         1 <0>         0.3937
     56 H22         1.0716   -5.1764    4.6556 H         1 <0>         0.4163
     57 H23        -1.1974   -6.2906    5.9151 H         1 <0>         0.0718
     58 H24        -0.5333   -7.4967    4.7870 H         1 <0>         0.0721
     59 H25         1.6803   -7.3079    5.8885 H         1 <0>         0.0720
     60 H26         1.0161   -6.1019    7.0166 H         1 <0>         0.0715
     61 H27        -0.6193   -7.7736    7.8409 H         1 <0>         0.0685
     62 H28         0.0449   -8.9797    6.7128 H         1 <0>         0.0688
     63 H29         2.2585   -8.7909    7.8143 H         1 <0>         0.0731
     64 H30         1.5943   -7.5849    8.9424 H         1 <0>         0.0729
     65 H31         0.0100   -8.2359   10.6659 H         1 <0>         0.1200
     66 H32        -0.8017  -10.0466   12.1238 H         1 <0>         0.1222
     67 H33        -0.4036  -12.3967   11.5060 H         1 <0>         0.1223
     68 H34         0.8055  -12.9361    9.4299 H         1 <0>         0.1224
     69 H35         1.6099  -11.1255    7.9678 H         1 <0>         0.1203
     70 H36         0.4772   -0.3282   -0.8270 H         1 <0>         0.4253
@<TRIPOS>BOND
     1    1    2 1
     2    1   35 1
     3    1   36 1
     4    1   37 1
     5    2    7 1
     6    2    3 1
     7    2   70 1
     8    3    4 1
     9    3   38 1
    10    3   39 1
    11    4    5 1
    12    4   40 1
    13    4   41 1
    14    5    6 1
    15    5    8 1
    16    6    7 1
    17    6   42 1
    18    6   43 1
    19    7   44 1
    20    7   45 1
    21    8   13 ar
    22    8    9 ar
    23    9   10 ar
    24   10   11 ar
    25   10   24 1
    26   11   12 ar
    27   12   13 ar
    28   12   14 1
    29   14   15 1
    30   14   46 1
    31   15   16 1
    32   15   47 1
    33   15   48 1
    34   16   17 1
    35   16   49 1
    36   16   50 1
    37   17   22 ar
    38   17   18 ar
    39   18   19 ar
    40   18   51 1
    41   19   20 ar
    42   19   52 1
    43   20   21 ar
    44   20   23 1
    45   21   22 ar
    46   21   53 1
    47   22   54 1
    48   23   55 1
    49   24   25 1
    50   24   56 1
    51   25   26 1
    52   25   57 1
    53   25   58 1
    54   26   27 1
    55   26   59 1
    56   26   60 1
    57   27   28 1
    58   27   61 1
    59   27   62 1
    60   28   29 1
    61   28   63 1
    62   28   64 1
    63   29   34 ar
    64   29   30 ar
    65   30   31 ar
    66   30   65 1
    67   31   32 ar
    68   31   66 1
    69   32   33 ar
    70   32   67 1
    71   33   34 ar
    72   33   68 1
    73   34   69 1
