@<TRIPOS>MOLECULE
CHEMBL106611
   55    57     0     0     0
SMALL
USER_CHARGES

@<TRIPOS>ATOM
      1 C1         -0.0167    1.3781    0.0096 C.ar      1 <0>        -0.1274
      2 C2          1.1709    2.0855    0.0021 C.ar      1 <0>        -0.1187
      3 C3          2.3773    1.4107   -0.0130 C.ar      1 <0>        -0.1162
      4 C4          2.3960    0.0285   -0.0201 C.ar      1 <0>        -0.0776
      5 C5          1.2084   -0.6789   -0.0117 C.ar      1 <0>        -0.1180
      6 C6          0.0021   -0.0041    0.0020 C.ar      1 <0>        -0.1191
      7 C7          3.7112   -0.7071   -0.0376 C.3       1 <0>        -0.0782
      8 C8          4.1714   -0.9633    1.3989 C.3       1 <0>        -0.0899
      9 C9          5.4865   -1.6989    1.3815 C.2       1 <0>        -0.1201
     10 C10         6.5410   -1.2003    2.0378 C.2       1 <0>        -0.0548
     11 C11         6.4153    0.0758    2.7820 C.ar      1 <0>        -0.0423
     12 C12         7.1374    1.1967    2.3739 C.ar      1 <0>        -0.0858
     13 C13         7.0178    2.3822    3.0679 C.ar      1 <0>        -0.1424
     14 C14         6.1799    2.4604    4.1722 C.ar      1 <0>         0.1022
     15 C15         5.4599    1.3460    4.5814 C.ar      1 <0>        -0.1451
     16 C16         5.5703    0.1593    3.8880 C.ar      1 <0>        -0.0904
     17 O1          6.0647    3.6299    4.8542 O.3       1 <0>        -0.5005
     18 C17         7.8352   -1.9242    2.0206 C.ar      1 <0>        -0.0099
     19 C18         8.3528   -2.4593    3.1996 C.ar      1 <0>        -0.1484
     20 C19         9.5572   -3.1330    3.1808 C.ar      1 <0>        -0.0781
     21 C20        10.2536   -3.2790    1.9954 C.ar      1 <0>        -0.2094
     22 C21         9.7455   -2.7494    0.8173 C.ar      1 <0>         0.1405
     23 C22         8.5345   -2.0766    0.8257 C.ar      1 <0>        -0.1444
     24 O2         10.4335   -2.8954   -0.3456 O.3       1 <0>        -0.3116
     25 C23        11.6723   -3.6050   -0.2817 C.3       1 <0>         0.0587
     26 C24        12.2969   -3.6671   -1.6771 C.3       1 <0>        -0.0919
     27 C25        13.6232   -4.4269   -1.6087 C.3       1 <0>        -0.1806
     28 C26        14.2384   -4.4881   -2.9831 C.2       1 <0>         0.4911
     29 O3         13.6688   -3.9720   -3.9295 O.co2     1 <0>        -0.6955
     30 O4         15.3057   -5.0538   -3.1485 O.co2     1 <0>        -0.7045
     31 H1         -0.9591    1.9053    0.0259 H         1 <0>         0.1191
     32 H2          1.1563    3.1654    0.0076 H         1 <0>         0.1199
     33 H3          3.3051    1.9634   -0.0196 H         1 <0>         0.1204
     34 H4          1.2231   -1.7588   -0.0176 H         1 <0>         0.1213
     35 H5         -0.9258   -0.5567    0.0082 H         1 <0>         0.1202
     36 H6          3.5884   -1.6586   -0.5549 H         1 <0>         0.0751
     37 H7          4.4573   -0.1052   -0.5563 H         1 <0>         0.0752
     38 H8          4.2941   -0.0118    1.9163 H         1 <0>         0.0778
     39 H9          3.4252   -1.5652    1.9176 H         1 <0>         0.0751
     40 H10         5.5781   -2.6285    0.8394 H         1 <0>         0.1221
     41 H11         7.7898    1.1362    1.5154 H         1 <0>         0.1290
     42 H12         7.5769    3.2507    2.7523 H         1 <0>         0.1291
     43 H13         4.8095    1.4099    5.4412 H         1 <0>         0.1279
     44 H14         5.0065   -0.7060    4.2041 H         1 <0>         0.1270
     45 H15         5.3623    4.2084    4.5270 H         1 <0>         0.3890
     46 H16         7.8115   -2.3463    4.1273 H         1 <0>         0.1198
     47 H17         9.9569   -3.5469    4.0947 H         1 <0>         0.1236
     48 H18        11.1960   -3.8064    1.9861 H         1 <0>         0.1291
     49 H19         8.1359   -1.6676   -0.0909 H         1 <0>         0.1305
     50 H20        12.3514   -3.0900    0.3977 H         1 <0>         0.0579
     51 H21        11.4930   -4.6169    0.0815 H         1 <0>         0.0580
     52 H22        11.6178   -4.1821   -2.3565 H         1 <0>         0.0715
     53 H23        12.4761   -2.6552   -2.0403 H         1 <0>         0.0714
     54 H24        14.3023   -3.9119   -0.9293 H         1 <0>         0.0591
     55 H25        13.4439   -5.4388   -1.2454 H         1 <0>         0.0591
@<TRIPOS>BOND
     1    1    6 ar
     2    1    2 ar
     3    1   31 1
     4    2    3 ar
     5    2   32 1
     6    3    4 ar
     7    3   33 1
     8    4    5 ar
     9    4    7 1
    10    5    6 ar
    11    5   34 1
    12    6   35 1
    13    7    8 1
    14    7   36 1
    15    7   37 1
    16    8    9 1
    17    8   38 1
    18    8   39 1
    19    9   10 2
    20    9   40 1
    21   10   11 1
    22   10   18 1
    23   11   16 ar
    24   11   12 ar
    25   12   13 ar
    26   12   41 1
    27   13   14 ar
    28   13   42 1
    29   14   15 ar
    30   14   17 1
    31   15   16 ar
    32   15   43 1
    33   16   44 1
    34   17   45 1
    35   18   23 ar
    36   18   19 ar
    37   19   20 ar
    38   19   46 1
    39   20   21 ar
    40   20   47 1
    41   21   22 ar
    42   21   48 1
    43   22   23 ar
    44   22   24 1
    45   23   49 1
    46   24   25 1
    47   25   26 1
    48   25   50 1
    49   25   51 1
    50   26   27 1
    51   26   52 1
    52   26   53 1
    53   27   28 1
    54   27   54 1
    55   27   55 1
    56   28   29 2
    57   28   30 1
