@<TRIPOS>MOLECULE
CHEMBL209429
   46    49     0     0     0
SMALL
USER_CHARGES

@<TRIPOS>ATOM
      1 C1         -0.0187    1.5258    0.0104 C.3       1 <0>        -0.1540
      2 C2          0.0021   -0.0041    0.0020 C.3       1 <0>        -0.1259
      3 C3          0.7182   -0.4975   -1.2568 C.3       1 <0>        -0.1215
      4 C4          0.7390   -2.0273   -1.2652 C.3       1 <0>        -0.1016
      5 C5          1.4551   -2.5207   -2.5240 C.3       1 <0>        -0.0370
      6 C6          2.8961   -2.0108   -2.5819 C.3       1 <0>        -0.1078
      7 C7          3.6669   -2.5731   -1.3836 C.3       1 <0>        -0.1624
      8 C8          3.6320   -4.0784   -1.3926 C.2       1 <0>         0.3995
      9 O1          4.5352   -4.7063   -0.8792 O.2       1 <0>        -0.4480
     10 C9          2.5113   -4.7908   -2.0184 C.2       1 <0>        -0.1236
     11 C10         1.5028   -4.0426   -2.5804 C.2       1 <0>         0.0424
     12 C11         0.3451   -4.4628   -3.3454 C.ar      1 <0>        -0.1076
     13 C12        -0.2972   -5.7136   -3.3890 C.ar      1 <0>        -0.0620
     14 C13        -1.3704   -5.8394   -4.2500 C.ar      1 <0>        -0.1580
     15 C14        -1.8013   -4.7833   -5.0405 C.ar      1 <0>         0.1332
     16 C15        -1.1827   -3.5314   -4.9961 C.ar      1 <0>        -0.1383
     17 C16        -0.1206   -3.3832   -4.1305 C.ar      1 <0>        -0.0480
     18 C17         0.6735   -2.1501   -3.7996 C.3       1 <0>        -0.0801
     19 O2         -2.8514   -4.9717   -5.8796 O.3       1 <0>        -0.4989
     20 C18         2.4682   -6.2661   -2.0449 C.2       1 <0>        -0.0909
     21 C19         3.3086   -7.1435   -2.6795 C.2       1 <0>        -0.1323
     22 C20         3.0679   -8.4946   -2.5589 C.2       1 <0>        -0.1513
     23 C21         2.0102   -8.9149   -1.8184 C.2       1 <0>        -0.1754
     24 S1          1.3126   -7.3723   -1.2521 S.3       1 <0>         0.0402
     25 H1          1.0039    1.9031    0.0027 H         1 <0>         0.0544
     26 H2         -0.5459    1.8868   -0.8726 H         1 <0>         0.0538
     27 H3         -0.5289    1.8773    0.9072 H         1 <0>         0.0540
     28 H4          0.5293   -0.3651    0.8851 H         1 <0>         0.0618
     29 H5         -1.0205   -0.3814    0.0098 H         1 <0>         0.0613
     30 H6          0.1910   -0.1364   -2.1398 H         1 <0>         0.0675
     31 H7          1.7408   -0.1202   -1.2645 H         1 <0>         0.0694
     32 H8          1.2661   -2.3884   -0.3821 H         1 <0>         0.0715
     33 H9         -0.2836   -2.4046   -1.2575 H         1 <0>         0.0717
     34 H10         3.3650   -2.3450   -3.5074 H         1 <0>         0.0769
     35 H11         2.9001   -0.9216   -2.5404 H         1 <0>         0.0900
     36 H12         4.7027   -2.2371   -1.4325 H         1 <0>         0.1022
     37 H13         3.2143   -2.2084   -0.4616 H         1 <0>         0.1070
     38 H14         0.0343   -6.5393   -2.7768 H         1 <0>         0.1490
     39 H15        -1.8884   -6.7853   -4.3092 H         1 <0>         0.1318
     40 H16        -1.5228   -2.7138   -5.6143 H         1 <0>         0.1414
     41 H17         0.0070   -1.3096   -3.6061 H         1 <0>         0.0962
     42 H18         1.3612   -1.9119   -4.6109 H         1 <0>         0.0951
     43 H19        -3.7114   -4.7748   -5.4837 H         1 <0>         0.3950
     44 H20         4.1429   -6.7827   -3.2628 H         1 <0>         0.1335
     45 H21         3.7122   -9.2105   -3.0475 H         1 <0>         0.1371
     46 H22         1.6783   -9.9233   -1.6202 H         1 <0>         0.1884
@<TRIPOS>BOND
     1    1    2 1
     2    1   25 1
     3    1   26 1
     4    1   27 1
     5    2    3 1
     6    2   28 1
     7    2   29 1
     8    3    4 1
     9    3   30 1
    10    3   31 1
    11    4    5 1
    12    4   32 1
    13    4   33 1
    14    5   11 1
    15    5   18 1
    16    5    6 1
    17    6    7 1
    18    6   34 1
    19    6   35 1
    20    7    8 1
    21    7   36 1
    22    7   37 1
    23    8    9 2
    24    8   10 1
    25   10   11 2
    26   10   20 1
    27   11   12 1
    28   12   17 ar
    29   12   13 ar
    30   13   14 ar
    31   13   38 1
    32   14   15 ar
    33   14   39 1
    34   15   16 ar
    35   15   19 1
    36   16   17 ar
    37   16   40 1
    38   17   18 1
    39   18   41 1
    40   18   42 1
    41   19   43 1
    42   20   24 1
    43   20   21 2
    44   21   22 1
    45   21   44 1
    46   22   23 2
    47   22   45 1
    48   23   24 1
    49   23   46 1
