@<TRIPOS>MOLECULE
CHEMBL537254
   61    65     0     0     0
SMALL
USER_CHARGES

@<TRIPOS>ATOM
      1 C1          0.2980    1.0392   -0.5212 C.ar      1 <0>        -0.0779
      2 C2          1.5035    1.7073   -0.5539 C.ar      1 <0>        -0.1412
      3 C3          2.6950    0.9966   -0.5005 C.ar      1 <0>         0.1249
      4 C4          2.6784   -0.3890   -0.4135 C.ar      1 <0>        -0.1446
      5 C5          1.4774   -1.0652   -0.3798 C.ar      1 <0>        -0.0779
      6 C6          0.2765   -0.3544   -0.4338 C.ar      1 <0>        -0.0327
      7 C7         -1.0126   -1.0746   -0.3979 C.2       1 <0>        -0.0862
      8 C8         -1.2262   -2.4120   -0.3099 C.2       1 <0>         0.0588
      9 C9         -2.5953   -2.9064   -0.2896 C.ar      1 <0>        -0.1084
     10 C10        -3.0489   -4.2453   -0.2041 C.ar      1 <0>        -0.0486
     11 C11        -4.3770   -4.5312   -0.1979 C.ar      1 <0>        -0.1408
     12 C12        -5.3377   -3.5249   -0.2753 C.ar      1 <0>         0.1431
     13 C13        -4.9328   -2.2026   -0.3601 C.ar      1 <0>        -0.1018
     14 C14        -3.5873   -1.9038   -0.3666 C.ar      1 <0>        -0.0966
     15 S1         -2.6591   -0.3941   -0.4522 S.3       1 <0>         0.1044
     16 O1         -6.6605   -3.8378   -0.2682 O.3       1 <0>        -0.4888
     17 O2         -0.1777   -3.2766   -0.2421 O.3       1 <0>        -0.2361
     18 C15         0.3028   -3.6019    0.9872 C.ar      1 <0>         0.1014
     19 C16        -0.2784   -3.0606    2.1248 C.ar      1 <0>        -0.1456
     20 C17         0.2096   -3.3916    3.3738 C.ar      1 <0>        -0.0998
     21 C18         1.2810   -4.2648    3.4907 C.ar      1 <0>         0.0812
     22 C19         1.8622   -4.8060    2.3535 C.ar      1 <0>        -0.1621
     23 C20         1.3708   -4.4797    1.1047 C.ar      1 <0>        -0.1073
     24 O3          1.7619   -4.5898    4.7204 O.3       1 <0>        -0.3277
     25 C21         2.8670   -5.4947    4.7664 C.3       1 <0>         0.0254
     26 C22         3.2655   -5.7393    6.2232 C.3       1 <0>        -0.0008
     27 N1          2.1590   -6.3985    6.9296 N.4       1 <0>        -0.3840
     28 C23         2.4795   -6.4919    8.3589 C.3       1 <0>        -0.0071
     29 C24         1.2964   -7.1043    9.1119 C.3       1 <0>        -0.1466
     30 C25         1.0150   -8.5038    8.5577 C.3       1 <0>        -0.1391
     31 C26         0.7551   -8.4031    7.0518 C.3       1 <0>        -0.1453
     32 C27         1.9583   -7.7427    6.3752 C.3       1 <0>        -0.0131
     33 O4          3.8813    1.6593   -0.5340 O.3       1 <0>        -0.4960
     34 H1         -0.6285    1.5930   -0.5587 H         1 <0>         0.1321
     35 H2          1.5210    2.7850   -0.6216 H         1 <0>         0.1389
     36 H3          3.6076   -0.9378   -0.3726 H         1 <0>         0.1346
     37 H4          1.4654   -2.1430   -0.3125 H         1 <0>         0.1406
     38 H5         -2.3301   -5.0491   -0.1435 H         1 <0>         0.1306
     39 H6         -4.6952   -5.5611   -0.1319 H         1 <0>         0.1387
     40 H7         -5.6660   -1.4120   -0.4207 H         1 <0>         0.1449
     41 H8         -7.0524   -3.8693    0.6153 H         1 <0>         0.3986
     42 H9         -1.1122   -2.3801    2.0338 H         1 <0>         0.1373
     43 H10        -0.2428   -2.9703    4.2593 H         1 <0>         0.1363
     44 H11         2.6966   -5.4856    2.4448 H         1 <0>         0.1358
     45 H12         1.8205   -4.9046    0.2194 H         1 <0>         0.1426
     46 H13         2.5822   -6.4398    4.3041 H         1 <0>         0.0859
     47 H14         3.7107   -5.0656    4.2260 H         1 <0>         0.1091
     48 H15         4.1488   -6.3771    6.2561 H         1 <0>         0.1488
     49 H16         3.4873   -4.7865    6.7041 H         1 <0>         0.1423
     50 H17         3.3597   -7.1207    8.4931 H         1 <0>         0.1292
     51 H18         2.6827   -5.4955    8.7512 H         1 <0>         0.1309
     52 H19         1.5371   -7.1745   10.1726 H         1 <0>         0.1130
     53 H20         0.4157   -6.4761    8.9786 H         1 <0>         0.0878
     54 H21         1.8767   -9.1469    8.7366 H         1 <0>         0.0822
     55 H22         0.1379   -8.9219    9.0517 H         1 <0>         0.0946
     56 H23         0.6089   -9.4017    6.6401 H         1 <0>         0.1122
     57 H24        -0.1368   -7.8019    6.8758 H         1 <0>         0.0876
     58 H25         1.7767   -7.6696    5.3029 H         1 <0>         0.1275
     59 H26         2.8496   -8.3448    6.5517 H         1 <0>         0.1302
     60 H27         4.2183    1.9067    0.3380 H         1 <0>         0.3951
     61 H28         1.3157   -5.8574    6.8108 H         1 <0>         0.4294
@<TRIPOS>BOND
     1    1    6 ar
     2    1    2 ar
     3    1   34 1
     4    2    3 ar
     5    2   35 1
     6    3    4 ar
     7    3   33 1
     8    4    5 ar
     9    4   36 1
    10    5    6 ar
    11    5   37 1
    12    6    7 1
    13    7   15 1
    14    7    8 2
    15    8    9 1
    16    8   17 1
    17    9   14 ar
    18    9   10 ar
    19   10   11 ar
    20   10   38 1
    21   11   12 ar
    22   11   39 1
    23   12   13 ar
    24   12   16 1
    25   13   14 ar
    26   13   40 1
    27   14   15 1
    28   16   41 1
    29   17   18 1
    30   18   23 ar
    31   18   19 ar
    32   19   20 ar
    33   19   42 1
    34   20   21 ar
    35   20   43 1
    36   21   22 ar
    37   21   24 1
    38   22   23 ar
    39   22   44 1
    40   23   45 1
    41   24   25 1
    42   25   26 1
    43   25   46 1
    44   25   47 1
    45   26   27 1
    46   26   48 1
    47   26   49 1
    48   27   32 1
    49   27   28 1
    50   27   61 1
    51   28   29 1
    52   28   50 1
    53   28   51 1
    54   29   30 1
    55   29   52 1
    56   29   53 1
    57   30   31 1
    58   30   54 1
    59   30   55 1
    60   31   32 1
    61   31   56 1
    62   31   57 1
    63   32   58 1
    64   32   59 1
    65   33   60 1
