@<TRIPOS>MOLECULE
CHEMBL312186
   29    32     0     0     0
SMALL
USER_CHARGES

@<TRIPOS>ATOM
      1 C1         -0.0167    1.3831    0.0096 C.ar      1 <0>        -0.1443
      2 C2          1.1519    2.1259    0.0025 C.ar      1 <0>        -0.0440
      3 C3          2.3522    1.4184   -0.0129 C.ar      1 <0>        -0.0760
      4 C4          2.3761    0.0012   -0.0186 C.ar      1 <0>         0.0620
      5 C5          1.1908   -0.7250   -0.0124 C.ar      1 <0>        -0.1172
      6 C6          0.0021   -0.0041    0.0020 C.ar      1 <0>         0.1326
      7 O1         -1.1779   -0.6791    0.0091 O.3       1 <0>        -0.4913
      8 O2          3.6560   -0.4000   -0.0298 O.3       1 <0>        -0.1534
      9 C7          4.4963    0.6425   -0.0358 C.2       1 <0>         0.2858
     10 C8          3.7440    1.8205   -0.0284 C.2       1 <0>        -0.2966
     11 C9          4.4050    3.1277   -0.0454 C.2       1 <0>         0.4689
     12 O3          3.8125    4.1764    0.1458 O.2       1 <0>        -0.4321
     13 C10         5.8604    3.0577   -0.3159 C.ar      1 <0>        -0.2500
     14 C11         6.5842    4.2284   -0.5784 C.ar      1 <0>         0.2188
     15 C12         7.9381    4.1487   -0.8448 C.ar      1 <0>        -0.1942
     16 C13         8.5727    2.9112   -0.8469 C.ar      1 <0>         0.1936
     17 C14         7.8639    1.7522   -0.5812 C.ar      1 <0>        -0.1734
     18 C15         6.5007    1.8082   -0.3095 C.ar      1 <0>         0.1839
     19 O4          5.8419    0.6549   -0.0452 O.3       1 <0>        -0.1829
     20 O5          9.9019    2.8390   -1.1130 O.3       1 <0>        -0.4853
     21 O6          5.9597    5.4331   -0.5715 O.3       1 <0>        -0.4727
     22 H1         -0.9667    1.8965    0.0260 H         1 <0>         0.1417
     23 H2          1.1339    3.2058    0.0082 H         1 <0>         0.1511
     24 H3          1.1932   -1.8050   -0.0183 H         1 <0>         0.1533
     25 H4         -1.5273   -0.8696   -0.8722 H         1 <0>         0.3971
     26 H5          8.5025    5.0462   -1.0507 H         1 <0>         0.1547
     27 H6          8.3720    0.7992   -0.5849 H         1 <0>         0.1577
     28 H7         10.4642    2.9075   -0.3293 H         1 <0>         0.4057
     29 H8          5.9529    5.8678    0.2923 H         1 <0>         0.4067
@<TRIPOS>BOND
     1    1    6 ar
     2    1    2 ar
     3    1   22 1
     4    2    3 ar
     5    2   23 1
     6    3   10 1
     7    3    4 ar
     8    4    5 ar
     9    4    8 1
    10    5    6 ar
    11    5   24 1
    12    6    7 1
    13    7   25 1
    14    8    9 1
    15    9   19 1
    16    9   10 2
    17   10   11 1
    18   11   12 2
    19   11   13 1
    20   13   18 ar
    21   13   14 ar
    22   14   15 ar
    23   14   21 1
    24   15   16 ar
    25   15   26 1
    26   16   17 ar
    27   16   20 1
    28   17   18 ar
    29   17   27 1
    30   18   19 1
    31   20   28 1
    32   21   29 1
