@<TRIPOS>MOLECULE
CHEMBL206680
   68    73     0     0     0
SMALL
USER_CHARGES

@<TRIPOS>ATOM
      1 C1         -0.0167    1.3784    0.0096 C.ar      1 <0>        -0.0615
      2 C2          1.1695    2.0865    0.0021 C.ar      1 <0>        -0.1368
      3 C3          2.3802    1.4093   -0.0131 C.ar      1 <0>         0.1204
      4 C4          2.3963    0.0221   -0.0206 C.ar      1 <0>        -0.1973
      5 C5          1.2074   -0.6814   -0.0130 C.ar      1 <0>        -0.0658
      6 C6          0.0021   -0.0041    0.0020 C.ar      1 <0>        -0.1323
      7 C7         -1.2934   -0.7740    0.0107 C.3       1 <0>         0.1888
      8 C8         -1.6211   -1.2076   -1.3895 C.2       1 <0>        -0.0924
      9 C9         -1.1608   -2.3844   -1.8611 C.2       1 <0>        -0.0988
     10 C10        -1.4344   -2.7918   -3.2812 C.3       1 <0>         0.1133
     11 O1         -2.6753   -2.2496   -3.7320 O.3       1 <0>        -0.3025
     12 C11        -2.9334   -0.9437   -3.4661 C.ar      1 <0>         0.1533
     13 C12        -2.4367   -0.3713   -2.2828 C.ar      1 <0>        -0.1266
     14 C13        -2.7159    0.9592   -1.9798 C.ar      1 <0>        -0.0605
     15 C14        -3.4695    1.7153   -2.8542 C.ar      1 <0>        -0.1687
     16 C15        -3.9465    1.1541   -4.0321 C.ar      1 <0>         0.1529
     17 C16        -3.6793   -0.1741   -4.3373 C.ar      1 <0>        -0.1671
     18 O2         -4.6797    1.9095   -4.8911 O.3       1 <0>        -0.4922
     19 C17        -0.4124   -3.2588   -0.9453 C.ar      1 <0>        -0.1280
     20 C18         0.2995   -4.3619   -1.4118 C.ar      1 <0>        -0.0554
     21 C19         1.0021   -5.1474   -0.5213 C.ar      1 <0>        -0.1676
     22 C20         1.0017   -4.8403    0.8340 C.ar      1 <0>         0.1499
     23 C21         0.2892   -3.7469    1.3073 C.ar      1 <0>        -0.1730
     24 C22        -0.4246   -2.9570    0.4267 C.ar      1 <0>         0.1488
     25 O3         -1.1619   -1.9068    0.8699 O.3       1 <0>        -0.2910
     26 O4          1.7030   -5.6157    1.7017 O.3       1 <0>        -0.4902
     27 O5          3.5484    2.1036   -0.0209 O.3       1 <0>        -0.3255
     28 C23         4.7565    1.3405   -0.0365 C.3       1 <0>         0.0248
     29 C24         5.9580    2.2878   -0.0434 C.3       1 <0>        -0.0002
     30 N1          5.9923    3.0443    1.2153 N.4       1 <0>        -0.3789
     31 C25         6.2683    2.1506    2.3168 C.3       1 <0>        -0.0248
     32 C26         5.4854    2.5590    3.5765 C.3       1 <0>        -0.1441
     33 C27         5.4620    4.0848    3.7932 C.3       1 <0>        -0.1425
     34 C28         6.7909    4.7439    3.5314 C.3       1 <0>        -0.1340
     35 C29         6.8567    5.1866    2.0497 C.3       1 <0>        -0.1572
     36 C30         7.0744    4.0432    1.1686 C.3       1 <0>        -0.0022
     37 H1         -0.9594    1.9052    0.0259 H         1 <0>         0.1386
     38 H2          1.1543    3.1664    0.0076 H         1 <0>         0.1378
     39 H3          3.3375   -0.5074   -0.0328 H         1 <0>         0.1287
     40 H4          1.2194   -1.7613   -0.0189 H         1 <0>         0.1340
     41 H5         -2.0909   -0.1311    0.3832 H         1 <0>         0.1360
     42 H6         -0.6301   -2.4275   -3.9204 H         1 <0>         0.0787
     43 H7         -1.4749   -3.8794   -3.3411 H         1 <0>         0.1223
     44 H8         -2.3447    1.3969   -1.0648 H         1 <0>         0.1305
     45 H9         -3.6890    2.7470   -2.6223 H         1 <0>         0.1378
     46 H10        -4.0534   -0.6042   -5.2546 H         1 <0>         0.1448
     47 H11        -4.1523    2.3730   -5.5559 H         1 <0>         0.3980
     48 H12         0.3011   -4.6010   -2.4650 H         1 <0>         0.1382
     49 H13         1.5541   -6.0041   -0.8788 H         1 <0>         0.1396
     50 H14         0.2931   -3.5140    2.3619 H         1 <0>         0.1434
     51 H15         2.6161   -5.3276    1.8370 H         1 <0>         0.3950
     52 H16         4.7979    0.7076    0.8500 H         1 <0>         0.0868
     53 H17         4.7806    0.7165   -0.9299 H         1 <0>         0.1102
     54 H18         6.8762    1.7093   -0.1448 H         1 <0>         0.1510
     55 H19         5.8702    2.9798   -0.8810 H         1 <0>         0.1436
     56 H20         5.9853    1.1369    2.0335 H         1 <0>         0.1257
     57 H21         7.3357    2.1740    2.5366 H         1 <0>         0.1311
     58 H22         4.4600    2.2007    3.4853 H         1 <0>         0.0883
     59 H23         5.9450    2.0872    4.4450 H         1 <0>         0.1071
     60 H24         4.7177    4.5213    3.1271 H         1 <0>         0.0657
     61 H25         5.1678    4.2875    4.8229 H         1 <0>         0.0919
     62 H26         6.8985    5.6156    4.1770 H         1 <0>         0.0908
     63 H27         7.5947    4.0368    3.7362 H         1 <0>         0.0778
     64 H28         5.9192    5.6727    1.7798 H         1 <0>         0.0876
     65 H29         7.6750    5.8956    1.9243 H         1 <0>         0.1180
     66 H30         8.0086    3.5582    1.4517 H         1 <0>         0.1285
     67 H31         7.1699    4.4055    0.1450 H         1 <0>         0.1271
     68 H32         5.1069    3.5056    1.3614 H         1 <0>         0.4301
@<TRIPOS>BOND
     1    1    6 ar
     2    1    2 ar
     3    1   37 1
     4    2    3 ar
     5    2   38 1
     6    3    4 ar
     7    3   27 1
     8    4    5 ar
     9    4   39 1
    10    5    6 ar
    11    5   40 1
    12    6    7 1
    13    7   25 1
    14    7    8 1
    15    7   41 1
    16    8   13 1
    17    8    9 2
    18    9   10 1
    19    9   19 1
    20   10   11 1
    21   10   42 1
    22   10   43 1
    23   11   12 1
    24   12   17 ar
    25   12   13 ar
    26   13   14 ar
    27   14   15 ar
    28   14   44 1
    29   15   16 ar
    30   15   45 1
    31   16   17 ar
    32   16   18 1
    33   17   46 1
    34   18   47 1
    35   19   24 ar
    36   19   20 ar
    37   20   21 ar
    38   20   48 1
    39   21   22 ar
    40   21   49 1
    41   22   23 ar
    42   22   26 1
    43   23   24 ar
    44   23   50 1
    45   24   25 1
    46   26   51 1
    47   27   28 1
    48   28   29 1
    49   28   52 1
    50   28   53 1
    51   29   30 1
    52   29   54 1
    53   29   55 1
    54   30   36 1
    55   30   31 1
    56   30   68 1
    57   31   32 1
    58   31   56 1
    59   31   57 1
    60   32   33 1
    61   32   58 1
    62   32   59 1
    63   33   34 1
    64   33   60 1
    65   33   61 1
    66   34   35 1
    67   34   62 1
    68   34   63 1
    69   35   36 1
    70   35   64 1
    71   35   65 1
    72   36   66 1
    73   36   67 1
