@<TRIPOS>MOLECULE
CHEMBL183162
   61    65     0     0     0
SMALL
USER_CHARGES

@<TRIPOS>ATOM
      1 C1         -0.0167    1.3781    0.0096 C.ar      1 <0>        -0.1152
      2 C2          1.1709    2.0855    0.0021 C.ar      1 <0>        -0.1194
      3 C3          2.3773    1.4107   -0.0130 C.ar      1 <0>        -0.1062
      4 C4          2.3960    0.0285   -0.0201 C.ar      1 <0>        -0.0812
      5 C5          1.2084   -0.6789   -0.0117 C.ar      1 <0>        -0.0860
      6 C6          0.0021   -0.0041    0.0020 C.ar      1 <0>        -0.1270
      7 C7          3.7112   -0.7071   -0.0376 C.3       1 <0>         0.1370
      8 H1          4.4896   -0.0760    0.3913 H         1 <0>         0.0801
      9 C8          4.0785   -1.0693   -1.4776 C.3       1 <0>        -0.0271
     10 H2          4.3544   -0.1648   -2.0197 H         1 <0>         0.1004
     11 C9          5.2404   -2.0300   -1.4810 C.ar      1 <0>        -0.0808
     12 C10         5.9568   -2.2042   -2.6552 C.ar      1 <0>        -0.0903
     13 C11         7.0234   -3.0783   -2.6980 C.ar      1 <0>        -0.1412
     14 C12         7.3804   -3.7870   -1.5597 C.ar      1 <0>         0.1144
     15 C13         6.6648   -3.6104   -0.3866 C.ar      1 <0>        -0.1373
     16 C14         5.5959   -2.7297   -0.3465 C.ar      1 <0>        -0.0992
     17 C15         4.8508   -2.5558    0.9514 C.3       1 <0>         0.0970
     18 O1          3.5971   -1.9149    0.7235 O.3       1 <0>        -0.3611
     19 O2          8.4281   -4.6518   -1.5956 O.3       1 <0>        -0.4981
     20 C16         2.8941   -1.7148   -2.1497 C.ar      1 <0>        -0.0813
     21 C17         2.3571   -2.8792   -1.6325 C.ar      1 <0>        -0.0557
     22 C18         1.2717   -3.4731   -2.2470 C.ar      1 <0>        -0.1439
     23 C19         0.7202   -2.8999   -3.3837 C.ar      1 <0>         0.1121
     24 C20         1.2606   -1.7312   -3.9003 C.ar      1 <0>        -0.2008
     25 C21         2.3428   -1.1385   -3.2791 C.ar      1 <0>        -0.0699
     26 O3         -0.3473   -3.4824   -3.9902 O.3       1 <0>        -0.3291
     27 C22        -0.8629   -2.8369   -5.1562 C.3       1 <0>         0.0280
     28 C23        -2.0535   -3.6325   -5.6952 C.3       1 <0>         0.0037
     29 N1         -3.1483   -3.5992   -4.7163 N.4       1 <0>        -0.3954
     30 C24        -3.7105   -2.2275   -4.6233 C.3       1 <0>        -0.0103
     31 C25        -5.1275   -2.4639   -4.0428 C.3       1 <0>        -0.1445
     32 C26        -5.5699   -3.7743   -4.7334 C.3       1 <0>        -0.1449
     33 C27        -4.2619   -4.4618   -5.1671 C.3       1 <0>        -0.0088
     34 H3         -0.9591    1.9053    0.0259 H         1 <0>         0.1204
     35 H4          1.1563    3.1654    0.0076 H         1 <0>         0.1249
     36 H5          3.3051    1.9634   -0.0196 H         1 <0>         0.1236
     37 H6          1.2231   -1.7588   -0.0176 H         1 <0>         0.1278
     38 H7         -0.9258   -0.5567    0.0082 H         1 <0>         0.1161
     39 H8          5.6781   -1.6530   -3.5412 H         1 <0>         0.1265
     40 H9          7.5787   -3.2107   -3.6148 H         1 <0>         0.1319
     41 H10         6.9410   -4.1616    0.5001 H         1 <0>         0.1335
     42 H11         4.6805   -3.5329    1.4035 H         1 <0>         0.1129
     43 H12         5.4463   -1.9455    1.6305 H         1 <0>         0.0736
     44 H13         9.2782   -4.2493   -1.3711 H         1 <0>         0.3955
     45 H14         2.7867   -3.3250   -0.7476 H         1 <0>         0.1429
     46 H15         0.8530   -4.3830   -1.8431 H         1 <0>         0.1305
     47 H16         0.8331   -1.2831   -4.7851 H         1 <0>         0.1244
     48 H17         2.7611   -0.2263   -3.6784 H         1 <0>         0.1265
     49 H18        -1.1863   -1.8280   -4.9000 H         1 <0>         0.0844
     50 H19        -0.0848   -2.7867   -5.9178 H         1 <0>         0.1069
     51 H20        -2.3909   -3.1910   -6.6329 H         1 <0>         0.1478
     52 H21        -1.7518   -4.6656   -5.8679 H         1 <0>         0.1409
     53 H22        -3.1156   -1.6129   -3.9478 H         1 <0>         0.1334
     54 H23        -3.7707   -1.7687   -5.6102 H         1 <0>         0.1345
     55 H24        -5.0846   -2.5932   -2.9613 H         1 <0>         0.0984
     56 H25        -5.7947   -1.6438   -4.3081 H         1 <0>         0.1172
     57 H26        -6.1148   -4.4062   -4.0321 H         1 <0>         0.1056
     58 H27        -6.1878   -3.5534   -5.6037 H         1 <0>         0.1043
     59 H28        -4.2376   -4.5627   -6.2522 H         1 <0>         0.1312
     60 H29        -4.1849   -5.4428   -4.6984 H         1 <0>         0.1329
     61 H30        -2.8170   -3.9025   -3.8128 H         1 <0>         0.4337
@<TRIPOS>BOND
     1    1    6 ar
     2    1    2 ar
     3    1   34 1
     4    2    3 ar
     5    2   35 1
     6    3    4 ar
     7    3   36 1
     8    4    5 ar
     9    4    7 1
    10    5    6 ar
    11    5   37 1
    12    6   38 1
    13    7    8 1
    14    7   18 1
    15    7    9 1
    16    9   10 1
    17    9   11 1
    18    9   20 1
    19   11   16 ar
    20   11   12 ar
    21   12   13 ar
    22   12   39 1
    23   13   14 ar
    24   13   40 1
    25   14   15 ar
    26   14   19 1
    27   15   16 ar
    28   15   41 1
    29   16   17 1
    30   17   18 1
    31   17   42 1
    32   17   43 1
    33   19   44 1
    34   20   25 ar
    35   20   21 ar
    36   21   22 ar
    37   21   45 1
    38   22   23 ar
    39   22   46 1
    40   23   24 ar
    41   23   26 1
    42   24   25 ar
    43   24   47 1
    44   25   48 1
    45   26   27 1
    46   27   28 1
    47   27   49 1
    48   27   50 1
    49   28   29 1
    50   28   51 1
    51   28   52 1
    52   29   33 1
    53   29   30 1
    54   29   61 1
    55   30   31 1
    56   30   53 1
    57   30   54 1
    58   31   32 1
    59   31   55 1
    60   31   56 1
    61   32   33 1
    62   32   57 1
    63   32   58 1
    64   33   59 1
    65   33   60 1
