@<TRIPOS>MOLECULE
CHEMBL393982
   79    83     0     0     0
SMALL
USER_CHARGES

@<TRIPOS>ATOM
      1 C1         -0.0187    1.5258    0.0104 C.3       1 <0>        -0.1656
      2 C2          0.0021   -0.0041    0.0020 C.3       1 <0>         0.1424
      3 H1          0.5123   -0.3556   -0.8948 H         1 <0>         0.0891
      4 C3         -1.4333   -0.5336    0.0129 C.3       1 <0>        -0.1225
      5 C4         -1.4157   -2.0577   -0.1212 C.3       1 <0>        -0.0776
      6 C5         -2.8295   -2.5793   -0.1105 C.ar      1 <0>        -0.0935
      7 C6         -3.4314   -2.9172    1.0875 C.ar      1 <0>        -0.1008
      8 C7         -4.7271   -3.3960    1.1000 C.ar      1 <0>        -0.1428
      9 C8         -5.4247   -3.5373   -0.0909 C.ar      1 <0>         0.1019
     10 C9         -4.8186   -3.1971   -1.2916 C.ar      1 <0>        -0.1423
     11 C10        -3.5245   -2.7138   -1.2982 C.ar      1 <0>        -0.1006
     12 O1         -6.6993   -4.0085   -0.0813 O.3       1 <0>        -0.5005
     13 N1          0.7106   -0.4894    1.1889 N.am      1 <0>        -0.7286
     14 C11         2.0538   -0.5998    1.1737 C.2       1 <0>         0.5130
     15 O2          2.6758   -0.2974    0.1774 O.2       1 <0>        -0.5246
     16 C12         2.7826   -1.0990    2.3946 C.3       1 <0>        -0.0715
     17 C13         4.2638   -1.1281    2.1185 C.2       1 <0>        -0.1245
     18 C14         5.0231   -2.2458    1.5589 C.ar      1 <0>        -0.1131
     19 C15         4.6777   -3.5323    1.1337 C.ar      1 <0>        -0.0252
     20 C16         5.6407   -4.3678    0.6453 C.ar      1 <0>        -0.2240
     21 C17         6.9668   -3.9482    0.5671 C.ar      1 <0>         0.1388
     22 C18         7.3286   -2.6804    0.9828 C.ar      1 <0>        -0.1621
     23 C19         6.3613   -1.8152    1.4826 C.ar      1 <0>         0.1438
     24 N2          6.4078   -0.5252    1.9634 N.pl3     1 <0>        -0.5838
     25 H2          7.2086    0.0186    2.0256 H         1 <0>         0.4188
     26 C20         5.1451   -0.1211    2.3361 C.2       1 <0>         0.1385
     27 C21         4.8035    1.2059    2.8920 C.ar      1 <0>        -0.0436
     28 C22         3.6790    1.8910    2.4298 C.ar      1 <0>        -0.0937
     29 C23         3.3659    3.1288    2.9526 C.ar      1 <0>        -0.1166
     30 C24         4.1640    3.6909    3.9331 C.ar      1 <0>        -0.1064
     31 C25         5.2802    3.0169    4.3957 C.ar      1 <0>        -0.1170
     32 C26         5.6011    1.7760    3.8853 C.ar      1 <0>        -0.1053
     33 O3          7.9130   -4.7928    0.0784 O.3       1 <0>        -0.3142
     34 C27         7.4750   -6.0890   -0.3339 C.3       1 <0>         0.0650
     35 C28         8.6710   -6.8909   -0.8512 C.3       1 <0>        -0.1496
     36 C29         8.2021   -8.2787   -1.2926 C.3       1 <0>        -0.0015
     37 N3          9.3504   -9.0486   -1.7892 N.4       1 <0>        -0.3936
     38 C30        10.2705   -9.3754   -0.6700 C.3       1 <0>        -0.0088
     39 C31        11.0591  -10.5973   -1.2045 C.3       1 <0>        -0.1458
     40 C32         9.9863  -11.3829   -1.9931 C.3       1 <0>        -0.1456
     41 C33         8.8972  -10.3480   -2.3312 C.3       1 <0>        -0.0082
     42 H3          1.0039    1.9031    0.0027 H         1 <0>         0.0607
     43 H4         -0.5459    1.8868   -0.8726 H         1 <0>         0.0668
     44 H5         -0.5289    1.8773    0.9072 H         1 <0>         0.0584
     45 H6         -1.9156   -0.2570    0.9504 H         1 <0>         0.0721
     46 H7         -1.9862   -0.1019   -0.8214 H         1 <0>         0.0820
     47 H8         -0.9334   -2.3344   -1.0587 H         1 <0>         0.0731
     48 H9         -0.8628   -2.4894    0.7131 H         1 <0>         0.0729
     49 H10        -2.8879   -2.8071    2.0143 H         1 <0>         0.1253
     50 H11        -5.1966   -3.6605    2.0359 H         1 <0>         0.1288
     51 H12        -5.3596   -3.3061   -2.2200 H         1 <0>         0.1289
     52 H13        -3.0538   -2.4447   -2.2322 H         1 <0>         0.1260
     53 H14        -7.3727   -3.3195    0.0019 H         1 <0>         0.3926
     54 H15         0.2131   -0.7312    1.9857 H         1 <0>         0.3998
     55 H16         2.5826   -0.4337    3.2345 H         1 <0>         0.1027
     56 H17         2.4385   -2.1044    2.6374 H         1 <0>         0.1018
     57 H18         3.6517   -3.8644    1.1917 H         1 <0>         0.1257
     58 H19         5.3725   -5.3613    0.3176 H         1 <0>         0.1250
     59 H20         8.3590   -2.3629    0.9195 H         1 <0>         0.1294
     60 H21         3.0554    1.4534    1.6643 H         1 <0>         0.1307
     61 H22         2.4961    3.6602    2.5956 H         1 <0>         0.1276
     62 H23         3.9148    4.6603    4.3388 H         1 <0>         0.1273
     63 H24         5.8993    3.4613    5.1609 H         1 <0>         0.1281
     64 H25         6.4702    1.2489    4.2504 H         1 <0>         0.1219
     65 H26         7.0287   -6.6085    0.5140 H         1 <0>         0.0720
     66 H27         6.7352   -5.9870   -1.1279 H         1 <0>         0.0723
     67 H28         9.1174   -6.3714   -1.6991 H         1 <0>         0.0980
     68 H29         9.4108   -6.9928   -0.0572 H         1 <0>         0.0975
     69 H30         7.7557   -8.7981   -0.4446 H         1 <0>         0.1331
     70 H31         7.4623   -8.1767   -2.0866 H         1 <0>         0.1339
     71 H32        10.9431   -8.5415   -0.4689 H         1 <0>         0.1362
     72 H33         9.7083   -9.6420    0.2250 H         1 <0>         0.1346
     73 H34        11.8655  -10.2773   -1.8643 H         1 <0>         0.0983
     74 H35        11.4478  -11.1959   -0.3808 H         1 <0>         0.1169
     75 H36        10.4143  -11.7941   -2.9074 H         1 <0>         0.1055
     76 H37         9.5719  -12.1805   -1.3765 H         1 <0>         0.1041
     77 H38         7.9543  -10.6358   -1.8662 H         1 <0>         0.1313
     78 H39         8.7749  -10.2772   -3.4120 H         1 <0>         0.1329
     79 H40         9.8386   -8.5260   -2.5010 H         1 <0>         0.4282
@<TRIPOS>BOND
     1    1    2 1
     2    1   42 1
     3    1   43 1
     4    1   44 1
     5    2    3 1
     6    2    4 1
     7    2   13 1
     8    4    5 1
     9    4   45 1
    10    4   46 1
    11    5    6 1
    12    5   47 1
    13    5   48 1
    14    6   11 ar
    15    6    7 ar
    16    7    8 ar
    17    7   49 1
    18    8    9 ar
    19    8   50 1
    20    9   10 ar
    21    9   12 1
    22   10   11 ar
    23   10   51 1
    24   11   52 1
    25   12   53 1
    26   13   14 am
    27   13   54 1
    28   14   15 2
    29   14   16 1
    30   16   17 1
    31   16   55 1
    32   16   56 1
    33   17   26 2
    34   17   18 1
    35   18   23 ar
    36   18   19 ar
    37   19   20 ar
    38   19   57 1
    39   20   21 ar
    40   20   58 1
    41   21   22 ar
    42   21   33 1
    43   22   23 ar
    44   22   59 1
    45   23   24 1
    46   24   25 1
    47   24   26 1
    48   26   27 1
    49   27   32 ar
    50   27   28 ar
    51   28   29 ar
    52   28   60 1
    53   29   30 ar
    54   29   61 1
    55   30   31 ar
    56   30   62 1
    57   31   32 ar
    58   31   63 1
    59   32   64 1
    60   33   34 1
    61   34   35 1
    62   34   65 1
    63   34   66 1
    64   35   36 1
    65   35   67 1
    66   35   68 1
    67   36   37 1
    68   36   69 1
    69   36   70 1
    70   37   41 1
    71   37   38 1
    72   37   79 1
    73   38   39 1
    74   38   71 1
    75   38   72 1
    76   39   40 1
    77   39   73 1
    78   39   74 1
    79   40   41 1
    80   40   75 1
    81   40   76 1
    82   41   77 1
    83   41   78 1
