@<TRIPOS>MOLECULE
CHEMBL52598
   64    68     0     0     0
SMALL
USER_CHARGES

@<TRIPOS>ATOM
      1 C1          2.5559    3.0018    0.2206 C.ar      1 <0>        -0.1160
      2 C2          1.8728    1.8105    0.3792 C.ar      1 <0>        -0.1216
      3 C3          2.5302    0.6077    0.2005 C.ar      1 <0>        -0.1167
      4 C4          3.8706    0.5961   -0.1371 C.ar      1 <0>        -0.0761
      5 C5          4.5535    1.7874   -0.2965 C.ar      1 <0>        -0.1118
      6 C6          3.8965    2.9902   -0.1165 C.ar      1 <0>        -0.1208
      7 C7          4.5875   -0.7152   -0.3308 C.3       1 <0>        -0.0794
      8 H1          5.5455   -0.5412   -0.8208 H         1 <0>         0.1022
      9 C8          4.8170   -1.3850    1.0300 C.3       1 <0>         0.0686
     10 O1          3.5567   -1.5048    1.6912 O.3       1 <0>        -0.3028
     11 C9          2.5205   -2.0356    0.9912 C.ar      1 <0>         0.1608
     12 C10         1.4130   -2.4963    1.6945 C.ar      1 <0>        -0.1827
     13 C11         0.3348   -3.0395    1.0168 C.ar      1 <0>         0.1505
     14 C12         0.3610   -3.1235   -0.3684 C.ar      1 <0>        -0.1778
     15 C13         1.4617   -2.6678   -1.0650 C.ar      1 <0>        -0.0620
     16 C14         2.5435   -2.1260   -0.3900 C.ar      1 <0>        -0.1748
     17 C15         3.7312   -1.6494   -1.1892 C.3       1 <0>         0.0025
     18 H2          4.3284   -2.5074   -1.4978 H         1 <0>         0.1007
     19 C16         3.2508   -0.9086   -2.4104 C.ar      1 <0>        -0.0588
     20 C17         2.0307   -0.2578   -2.3869 C.ar      1 <0>        -0.0763
     21 C18         1.5871    0.4216   -3.5042 C.ar      1 <0>        -0.0898
     22 C19         2.3685    0.4514   -4.6530 C.ar      1 <0>        -0.0958
     23 C20         3.5942   -0.2033   -4.6728 C.ar      1 <0>        -0.1312
     24 C21         4.0337   -0.8764   -3.5501 C.ar      1 <0>        -0.0933
     25 S1          1.8063    1.3166   -6.0813 S.3       1 <0>        -0.0637
     26 C22         3.1352    1.0750   -7.2921 C.3       1 <0>        -0.1639
     27 C23         2.7710    1.7850   -8.5976 C.3       1 <0>         0.0104
     28 N1          3.8472    1.5894   -9.5781 N.4       1 <0>        -0.3802
     29 C24         5.0697    2.2447   -9.0979 C.3       1 <0>        -0.0138
     30 C25         6.2152    1.9755  -10.0761 C.3       1 <0>        -0.1452
     31 C26         5.8438    2.5313  -11.4539 C.3       1 <0>        -0.1399
     32 C27         4.5280    1.8958  -11.9121 C.3       1 <0>        -0.1459
     33 C28         3.4450    2.1679  -10.8658 C.3       1 <0>        -0.0065
     34 O2         -0.7464   -3.4898    1.7062 O.3       1 <0>        -0.4939
     35 H3          2.0412    3.9416    0.3557 H         1 <0>         0.1203
     36 H4          0.8255    1.8196    0.6429 H         1 <0>         0.1195
     37 H5          1.9966   -0.3230    0.3251 H         1 <0>         0.1369
     38 H6          5.6009    1.7783   -0.5600 H         1 <0>         0.1178
     39 H7          4.4301    3.9209   -0.2407 H         1 <0>         0.1202
     40 H8          5.2504   -2.3744    0.8839 H         1 <0>         0.0750
     41 H9          5.4903   -0.7738    1.6311 H         1 <0>         0.1155
     42 H10         1.3939   -2.4304    2.7724 H         1 <0>         0.1411
     43 H11        -0.4789   -3.5454   -0.9004 H         1 <0>         0.1334
     44 H12         1.4799   -2.7341   -2.1429 H         1 <0>         0.1294
     45 H13         1.4240   -0.2813   -1.4938 H         1 <0>         0.1394
     46 H14         0.6339    0.9290   -3.4854 H         1 <0>         0.1293
     47 H15         4.2041   -0.1823   -5.5639 H         1 <0>         0.1159
     48 H16         4.9879   -1.3820   -3.5634 H         1 <0>         0.1286
     49 H17         4.0639    1.4896   -6.8999 H         1 <0>         0.1091
     50 H18         3.2646    0.0095   -7.4819 H         1 <0>         0.1093
     51 H19         1.8424    1.3705   -8.9898 H         1 <0>         0.1422
     52 H20         2.6417    2.8506   -8.4078 H         1 <0>         0.1404
     53 H21         4.9006    3.3189   -9.0239 H         1 <0>         0.1314
     54 H22         5.3310    1.8504   -8.1159 H         1 <0>         0.1282
     55 H23         7.1215    2.4643   -9.7187 H         1 <0>         0.1127
     56 H24         6.3854    0.9015  -10.1507 H         1 <0>         0.0876
     57 H25         5.7236    3.6128  -11.3904 H         1 <0>         0.0826
     58 H26         6.6320    2.2923  -12.1679 H         1 <0>         0.0950
     59 H27         4.2283    2.3276  -12.8669 H         1 <0>         0.1139
     60 H28         4.6631    0.8201  -12.0247 H         1 <0>         0.0880
     61 H29         2.5068    1.7169  -11.1890 H         1 <0>         0.1322
     62 H30         3.3105    3.2438  -10.7541 H         1 <0>         0.1304
     63 H31        -1.4280   -2.8193    1.8504 H         1 <0>         0.3970
     64 H32         4.0204    0.6021   -9.6935 H         1 <0>         0.4229
@<TRIPOS>BOND
     1    1    6 ar
     2    1    2 ar
     3    1   35 1
     4    2    3 ar
     5    2   36 1
     6    3    4 ar
     7    3   37 1
     8    4    5 ar
     9    4    7 1
    10    5    6 ar
    11    5   38 1
    12    6   39 1
    13    7    8 1
    14    7   17 1
    15    7    9 1
    16    9   10 1
    17    9   40 1
    18    9   41 1
    19   10   11 1
    20   11   16 ar
    21   11   12 ar
    22   12   13 ar
    23   12   42 1
    24   13   14 ar
    25   13   34 1
    26   14   15 ar
    27   14   43 1
    28   15   16 ar
    29   15   44 1
    30   16   17 1
    31   17   18 1
    32   17   19 1
    33   19   24 ar
    34   19   20 ar
    35   20   21 ar
    36   20   45 1
    37   21   22 ar
    38   21   46 1
    39   22   23 ar
    40   22   25 1
    41   23   24 ar
    42   23   47 1
    43   24   48 1
    44   25   26 1
    45   26   27 1
    46   26   49 1
    47   26   50 1
    48   27   28 1
    49   27   51 1
    50   27   52 1
    51   28   33 1
    52   28   29 1
    53   28   64 1
    54   29   30 1
    55   29   53 1
    56   29   54 1
    57   30   31 1
    58   30   55 1
    59   30   56 1
    60   31   32 1
    61   31   57 1
    62   31   58 1
    63   32   33 1
    64   32   59 1
    65   32   60 1
    66   33   61 1
    67   33   62 1
    68   34   63 1
