@<TRIPOS>MOLECULE
CHEMBL315761
   59    63     0     0     0
SMALL
USER_CHARGES

@<TRIPOS>ATOM
      1 C1          0.2832    1.3268    0.1261 C.2       1 <0>        -0.2141
      2 C2          1.5971    1.8476    0.0874 C.2       1 <0>        -0.1828
      3 C3          2.4341    0.7946    0.0940 C.2       1 <0>        -0.0114
      4 O1          1.7009   -0.3300    0.1343 O.3       1 <0>        -0.1574
      5 C4          0.3959   -0.0133    0.1539 C.2       1 <0>        -0.0257
      6 C5          3.9391    0.8648    0.0611 C.3       1 <0>        -0.0251
      7 H1          4.2620    1.9054    0.0307 H         1 <0>         0.1549
      8 C6          4.4727    0.1136   -1.1701 C.3       1 <0>         0.1461
      9 H2          5.5603    0.0604   -1.1216 H         1 <0>         0.1002
     10 O2          3.9333   -1.1993   -1.1818 O.3       1 <0>        -0.3033
     11 C7          4.1377   -2.0679   -0.1638 C.ar      1 <0>         0.1320
     12 C8          4.0295   -3.4278   -0.4450 C.ar      1 <0>        -0.1142
     13 C9          4.2097   -4.3680    0.5484 C.ar      1 <0>        -0.1059
     14 C10         4.5013   -3.9678    1.8443 C.ar      1 <0>         0.0961
     15 C11         4.6176   -2.6182    2.1346 C.ar      1 <0>        -0.0890
     16 C12         4.4433   -1.6717    1.1334 C.ar      1 <0>        -0.1420
     17 S1          4.6316    0.0420    1.5300 S.3       1 <0>        -0.0818
     18 O3          4.6717   -4.8951    2.8241 O.3       1 <0>        -0.4918
     19 C13         4.0590    0.8415   -2.4231 C.ar      1 <0>        -0.1062
     20 C14         2.7782    0.6864   -2.9204 C.ar      1 <0>        -0.0343
     21 C15         2.3967    1.3522   -4.0691 C.ar      1 <0>        -0.1411
     22 C16         3.2997    2.1774   -4.7235 C.ar      1 <0>         0.1251
     23 C17         4.5841    2.3317   -4.2223 C.ar      1 <0>        -0.2031
     24 C18         4.9591    1.6677   -3.0703 C.ar      1 <0>        -0.0577
     25 O4          2.9269    2.8331   -5.8540 O.3       1 <0>        -0.3270
     26 C19         3.9086    3.6656   -6.4747 C.3       1 <0>         0.0249
     27 C20         3.3100    4.3157   -7.7237 C.3       1 <0>        -0.0010
     28 N1          2.2029    5.1989   -7.3332 N.4       1 <0>        -0.3843
     29 C21         1.5304    5.6998   -8.5379 C.3       1 <0>        -0.0071
     30 C22         0.3268    6.5552   -8.1363 C.3       1 <0>        -0.1468
     31 C23         0.8074    7.7371   -7.2893 C.3       1 <0>        -0.1391
     32 C24         1.5719    7.2041   -6.0741 C.3       1 <0>        -0.1454
     33 C25         2.7293    6.3246   -6.5521 C.3       1 <0>        -0.0131
     34 H3         -0.6346    1.8958    0.1361 H         1 <0>         0.1505
     35 H4          1.8753    2.8907    0.0577 H         1 <0>         0.1463
     36 H5         -0.4240   -0.7155    0.1869 H         1 <0>         0.2046
     37 H6          3.8018   -3.7494   -1.4506 H         1 <0>         0.1397
     38 H7          4.1231   -5.4192    0.3165 H         1 <0>         0.1419
     39 H8          4.8441   -2.3014    3.1419 H         1 <0>         0.1386
     40 H9          5.5844   -5.1985    2.9241 H         1 <0>         0.3935
     41 H10         2.0756    0.0439   -2.4106 H         1 <0>         0.1370
     42 H11         1.3964    1.2302   -4.4575 H         1 <0>         0.1354
     43 H12         5.2889    2.9735   -4.7300 H         1 <0>         0.1322
     44 H13         5.9574    1.7909   -2.6773 H         1 <0>         0.1360
     45 H14         4.2216    4.4414   -5.7759 H         1 <0>         0.0871
     46 H15         4.7709    3.0618   -6.7573 H         1 <0>         0.1104
     47 H16         4.0773    4.8985   -8.2332 H         1 <0>         0.1494
     48 H17         2.9375    3.5408   -8.3936 H         1 <0>         0.1428
     49 H18         2.2277    6.3042   -9.1181 H         1 <0>         0.1293
     50 H19         1.1918    4.8576   -9.1412 H         1 <0>         0.1311
     51 H20        -0.1701    6.9277   -9.0321 H         1 <0>         0.1132
     52 H21        -0.3713    5.9518   -7.5562 H         1 <0>         0.0880
     53 H22         1.4656    8.3691   -7.8855 H         1 <0>         0.0822
     54 H23        -0.0516    8.3180   -6.9534 H         1 <0>         0.0948
     55 H24         1.9649    8.0403   -5.4959 H         1 <0>         0.1123
     56 H25         0.8996    6.6141   -5.4512 H         1 <0>         0.0879
     57 H26         3.2758    5.9437   -5.6894 H         1 <0>         0.1271
     58 H27         3.4011    6.9157   -7.1746 H         1 <0>         0.1303
     59 H28         1.5428    4.6813   -6.7725 H         1 <0>         0.4294
@<TRIPOS>BOND
     1    1    5 2
     2    1    2 1
     3    1   34 1
     4    2    3 2
     5    2   35 1
     6    3    4 1
     7    3    6 1
     8    4    5 1
     9    5   36 1
    10    6    7 1
    11    6   17 1
    12    6    8 1
    13    8    9 1
    14    8   10 1
    15    8   19 1
    16   10   11 1
    17   11   16 ar
    18   11   12 ar
    19   12   13 ar
    20   12   37 1
    21   13   14 ar
    22   13   38 1
    23   14   15 ar
    24   14   18 1
    25   15   16 ar
    26   15   39 1
    27   16   17 1
    28   18   40 1
    29   19   24 ar
    30   19   20 ar
    31   20   21 ar
    32   20   41 1
    33   21   22 ar
    34   21   42 1
    35   22   23 ar
    36   22   25 1
    37   23   24 ar
    38   23   43 1
    39   24   44 1
    40   25   26 1
    41   26   27 1
    42   26   45 1
    43   26   46 1
    44   27   28 1
    45   27   47 1
    46   27   48 1
    47   28   33 1
    48   28   29 1
    49   28   59 1
    50   29   30 1
    51   29   49 1
    52   29   50 1
    53   30   31 1
    54   30   51 1
    55   30   52 1
    56   31   32 1
    57   31   53 1
    58   31   54 1
    59   32   33 1
    60   32   55 1
    61   32   56 1
    62   33   57 1
    63   33   58 1
