@<TRIPOS>MOLECULE
CHEMBL183782
   27    29     0     0     0
SMALL
USER_CHARGES

@<TRIPOS>ATOM
      1 C1         -0.0169    1.3920    0.0097 C.ar      1 <0>        -0.0746
      2 C2          1.1685    2.0955    0.0022 C.ar      1 <0>        -0.1436
      3 C3          2.3804    1.4176   -0.0131 C.ar      1 <0>         0.1229
      4 C4          2.4035    0.0291   -0.0212 C.ar      1 <0>        -0.1430
      5 C5          1.2226   -0.6818   -0.0142 C.ar      1 <0>        -0.0721
      6 C6          0.0021   -0.0041    0.0020 C.ar      1 <0>        -0.0432
      7 C7         -1.2663   -0.7623    0.0105 C.2       1 <0>         0.0910
      8 C8         -1.3659   -2.1133    0.0097 C.2       1 <0>        -0.1888
      9 C9         -2.7994   -2.4149    0.0205 C.ar      1 <0>        -0.1034
     10 C10        -3.5441   -3.5958    0.0245 C.ar      1 <0>        -0.0806
     11 C11        -4.9240   -3.5315    0.0350 C.ar      1 <0>         0.0988
     12 C12        -5.5666   -2.2968    0.0415 C.ar      1 <0>        -0.0867
     13 C13        -4.8389   -1.1254    0.0376 C.ar      1 <0>        -0.0656
     14 C14        -3.4500   -1.1690    0.0271 C.ar      1 <0>         0.0718
     15 O1         -2.4967   -0.2133    0.0262 O.3       1 <0>        -0.1759
     16 Br1        -5.7317    0.5415    0.0459 Br        1 <0>        -0.0262
     17 O2         -5.6564   -4.6772    0.0385 O.3       1 <0>        -0.4882
     18 O3          3.5466    2.1146   -0.0204 O.3       1 <0>        -0.4975
     19 H1         -0.9589    1.9199    0.0260 H         1 <0>         0.1366
     20 H2          1.1547    3.1754    0.0077 H         1 <0>         0.1372
     21 H3          3.3481   -0.4944   -0.0334 H         1 <0>         0.1389
     22 H4          1.2415   -1.7617   -0.0209 H         1 <0>         0.1364
     23 H5         -0.5529   -2.8242    0.0025 H         1 <0>         0.1672
     24 H6         -3.0447   -4.5534    0.0191 H         1 <0>         0.1443
     25 H7         -6.6458   -2.2557    0.0493 H         1 <0>         0.1531
     26 H8         -5.8616   -5.0101    0.9229 H         1 <0>         0.3952
     27 H9          3.8926    2.3117    0.8608 H         1 <0>         0.3960
@<TRIPOS>BOND
     1    1    6 ar
     2    1    2 ar
     3    1   19 1
     4    2    3 ar
     5    2   20 1
     6    3    4 ar
     7    3   18 1
     8    4    5 ar
     9    4   21 1
    10    5    6 ar
    11    5   22 1
    12    6    7 1
    13    7   15 1
    14    7    8 2
    15    8    9 1
    16    8   23 1
    17    9   14 ar
    18    9   10 ar
    19   10   11 ar
    20   10   24 1
    21   11   12 ar
    22   11   17 1
    23   12   13 ar
    24   12   25 1
    25   13   14 ar
    26   13   16 1
    27   14   15 1
    28   17   26 1
    29   18   27 1
