@<TRIPOS>MOLECULE
CHEMBL235496
   51    54     0     0     0
SMALL
USER_CHARGES

@<TRIPOS>ATOM
      1 C1          1.5662    1.5270   -0.6912 C.3       1 <0>         0.0286
      2 O1          1.6998    0.1052   -0.7441 O.3       1 <0>        -0.3510
      3 C2          0.5925   -0.6036   -1.0537 C.2       1 <0>         0.5418
      4 O2         -0.4582   -0.0273   -1.2726 O.2       1 <0>        -0.5010
      5 C3          0.6524   -2.0030   -1.1231 C.2       1 <0>        -0.3751
      6 C4          1.1765   -2.5928   -2.2276 C.2       1 <0>         0.4332
      7 O3          1.2592   -3.9269   -2.3480 O.3       1 <0>        -0.2461
      8 C5          0.4850   -4.7258   -1.5727 C.ar      1 <0>         0.1330
      9 C6          0.2683   -6.0429   -1.9569 C.ar      1 <0>        -0.1528
     10 C7         -0.5205   -6.8723   -1.1768 C.ar      1 <0>         0.1376
     11 C8         -1.0940   -6.3853   -0.0105 C.ar      1 <0>        -0.1517
     12 C9         -0.8771   -5.0759    0.3704 C.ar      1 <0>        -0.0607
     13 C10        -0.0891   -4.2450   -0.4064 C.ar      1 <0>        -0.1260
     14 C11         0.1408   -2.8205    0.0295 C.3       1 <0>         0.0926
     15 C12         1.1502   -2.7929    1.1482 C.ar      1 <0>        -0.1107
     16 C13         2.4307   -3.2686    0.9342 C.ar      1 <0>        -0.0555
     17 C14         3.3577   -3.2448    1.9581 C.ar      1 <0>        -0.1455
     18 C15         3.0031   -2.7426    3.2018 C.ar      1 <0>         0.1307
     19 C16         1.7178   -2.2654    3.4138 C.ar      1 <0>        -0.2048
     20 C17         0.7959   -2.2866    2.3851 C.ar      1 <0>        -0.0708
     21 O4          3.9131   -2.7185    4.2108 O.3       1 <0>        -0.3101
     22 C18         3.4782   -2.1875    5.4642 C.3       1 <0>         0.1065
     23 C19         4.6134   -2.2416    6.4538 C.ar      1 <0>        -0.1274
     24 C20         5.8411   -2.7480    6.0706 C.ar      1 <0>        -0.0697
     25 C21         6.8826   -2.7977    6.9780 C.ar      1 <0>        -0.1285
     26 C22         6.6977   -2.3410    8.2699 C.ar      1 <0>        -0.0885
     27 C23         5.4714   -1.8339    8.6551 C.ar      1 <0>        -0.1513
     28 C24         4.4288   -1.7788    7.7454 C.ar      1 <0>         0.1046
     29 F1          3.2308   -1.2789    8.1196 F         1 <0>        -0.1368
     30 O5         -0.7330   -8.1607   -1.5532 O.3       1 <0>        -0.4923
     31 N1          1.6337   -1.8037   -3.2489 N.pl3     1 <0>        -0.8323
     32 H1          1.2434    1.8981   -1.6639 H         1 <0>         0.0586
     33 H2          0.8267    1.7946    0.0635 H         1 <0>         0.0602
     34 H3          2.5267    1.9728   -0.4327 H         1 <0>         0.1004
     35 H4          0.7149   -6.4205   -2.8649 H         1 <0>         0.1435
     36 H5         -1.7100   -7.0301    0.5987 H         1 <0>         0.1384
     37 H6         -1.3241   -4.6988    1.2784 H         1 <0>         0.1382
     38 H7         -0.7990   -2.3969    0.3837 H         1 <0>         0.0965
     39 H8          2.7063   -3.6594   -0.0341 H         1 <0>         0.1214
     40 H9          4.3576   -3.6171    1.7907 H         1 <0>         0.1303
     41 H10         1.4393   -1.8740    4.3811 H         1 <0>         0.1280
     42 H11        -0.2035   -1.9112    2.5483 H         1 <0>         0.1249
     43 H12         3.1617   -1.1531    5.3304 H         1 <0>         0.0794
     44 H13         2.6417   -2.7778    5.8382 H         1 <0>         0.0796
     45 H14         5.9866   -3.1053    5.0618 H         1 <0>         0.1424
     46 H15         7.8414   -3.1938    6.6778 H         1 <0>         0.1329
     47 H16         7.5119   -2.3810    8.9783 H         1 <0>         0.1352
     48 H17         5.3271   -1.4776    9.6644 H         1 <0>         0.1392
     49 H18        -0.0804   -8.7844   -1.2066 H         1 <0>         0.3966
     50 H19         1.6511   -0.8393   -3.1462 H         1 <0>         0.4231
     51 H20         1.9402   -2.2091   -4.0751 H         1 <0>         0.4113
@<TRIPOS>BOND
     1    1    2 1
     2    1   32 1
     3    1   33 1
     4    1   34 1
     5    2    3 1
     6    3    4 2
     7    3    5 1
     8    5   14 1
     9    5    6 2
    10    6    7 1
    11    6   31 1
    12    7    8 1
    13    8   13 ar
    14    8    9 ar
    15    9   10 ar
    16    9   35 1
    17   10   11 ar
    18   10   30 1
    19   11   12 ar
    20   11   36 1
    21   12   13 ar
    22   12   37 1
    23   13   14 1
    24   14   15 1
    25   14   38 1
    26   15   20 ar
    27   15   16 ar
    28   16   17 ar
    29   16   39 1
    30   17   18 ar
    31   17   40 1
    32   18   19 ar
    33   18   21 1
    34   19   20 ar
    35   19   41 1
    36   20   42 1
    37   21   22 1
    38   22   23 1
    39   22   43 1
    40   22   44 1
    41   23   28 ar
    42   23   24 ar
    43   24   25 ar
    44   24   45 1
    45   25   26 ar
    46   25   46 1
    47   26   27 ar
    48   26   47 1
    49   27   28 ar
    50   27   48 1
    51   28   29 1
    52   30   49 1
    53   31   50 1
    54   31   51 1
