@<TRIPOS>MOLECULE
CHEMBL85090
   68    72     0     0     0
SMALL
USER_CHARGES

@<TRIPOS>ATOM
      1 C1          0.2256    1.7687   -0.6059 C.ar      1 <0>        -0.0609
      2 C2          1.4229    2.4118   -0.3584 C.ar      1 <0>        -0.1389
      3 C3          2.6056    1.6871   -0.3315 C.ar      1 <0>         0.1214
      4 C4          2.5825    0.3178   -0.5532 C.ar      1 <0>        -0.2034
      5 C5          1.3826   -0.3206   -0.8002 C.ar      1 <0>        -0.0465
      6 C6          0.2053    0.4039   -0.8266 C.ar      1 <0>        -0.1003
      7 C7         -1.1023   -0.2952   -1.0958 C.3       1 <0>         0.1451
      8 H1         -1.9148    0.2569   -0.6234 H         1 <0>         0.0925
      9 C8         -1.3439   -0.3678   -2.6128 C.3       1 <0>        -0.1025
     10 H2         -1.2847    0.6302   -3.0471 H         1 <0>         0.1302
     11 S1         -3.0137   -1.0519   -2.8533 S.3       1 <0>        -0.0892
     12 C9         -3.0620   -2.3719   -1.6803 C.ar      1 <0>        -0.1361
     13 C10        -4.0825   -3.3101   -1.7625 C.ar      1 <0>        -0.0927
     14 C11        -4.1471   -4.3500   -0.8494 C.ar      1 <0>         0.0984
     15 C12        -3.1885   -4.4469    0.1487 C.ar      1 <0>        -0.1097
     16 C13        -2.1731   -3.5164    0.2294 C.ar      1 <0>        -0.1173
     17 C14        -2.0936   -2.4708   -0.6875 C.ar      1 <0>         0.1265
     18 O1         -1.0538   -1.6122   -0.5687 O.3       1 <0>        -0.3097
     19 O2         -5.1448   -5.2702   -0.9307 O.3       1 <0>        -0.4926
     20 C15        -0.3043   -1.2824   -3.2638 C.3       1 <0>        -0.0698
     21 C16        -0.4258   -1.1901   -4.7862 C.3       1 <0>        -0.1181
     22 C17         0.6137   -2.1047   -5.4371 C.3       1 <0>        -0.1150
     23 C18         0.3721   -3.5487   -4.9928 C.3       1 <0>        -0.1220
     24 C19         0.4935   -3.6410   -3.4705 C.3       1 <0>        -0.1115
     25 C20        -0.5460   -2.7264   -2.8195 C.3       1 <0>        -0.1602
     26 O3          3.7848    2.3176   -0.0888 O.3       1 <0>        -0.3269
     27 C21         4.9625    1.5083   -0.0759 C.3       1 <0>         0.0251
     28 C22         6.1818    2.3868    0.2112 C.3       1 <0>        -0.0011
     29 N1          6.0785    2.9392    1.5685 N.4       1 <0>        -0.3843
     30 C23         7.1611    3.9066    1.7850 C.3       1 <0>        -0.0070
     31 C24         7.0108    4.5449    3.1676 C.3       1 <0>        -0.1467
     32 C25         7.0788    3.4522    4.2384 C.3       1 <0>        -0.1391
     33 C26         5.9925    2.4095    3.9594 C.3       1 <0>        -0.1454
     34 C27         6.1804    1.8504    2.5475 C.3       1 <0>        -0.0134
     35 H3         -0.6959    2.3317   -0.6225 H         1 <0>         0.1395
     36 H4          1.4383    3.4779   -0.1865 H         1 <0>         0.1376
     37 H5          3.5019   -0.2485   -0.5331 H         1 <0>         0.1297
     38 H6          1.3641   -1.3865   -0.9729 H         1 <0>         0.1380
     39 H7         -4.8273   -3.2291   -2.5403 H         1 <0>         0.1387
     40 H8         -3.2375   -5.2534    0.8653 H         1 <0>         0.1405
     41 H9         -1.4323   -3.5998    1.0108 H         1 <0>         0.1383
     42 H10        -4.9316   -6.0335   -1.4848 H         1 <0>         0.3939
     43 H11         0.6949   -0.9711   -2.9595 H         1 <0>         0.0822
     44 H12        -1.4251   -1.5015   -5.0905 H         1 <0>         0.0749
     45 H13        -0.2536   -0.1614   -5.1027 H         1 <0>         0.0597
     46 H14         0.5272   -2.0390   -6.5217 H         1 <0>         0.0639
     47 H15         1.6130   -1.7934   -5.1328 H         1 <0>         0.0571
     48 H16        -0.6272   -3.8601   -5.2972 H         1 <0>         0.0632
     49 H17         1.1127   -4.2003   -5.4566 H         1 <0>         0.0606
     50 H18         0.3214   -4.6698   -3.1540 H         1 <0>         0.0607
     51 H19         1.4928   -3.3297   -3.1661 H         1 <0>         0.0549
     52 H20        -0.4595   -2.7922   -1.7349 H         1 <0>         0.0971
     53 H21        -1.5453   -3.0378   -3.1238 H         1 <0>         0.0754
     54 H22         4.8721    0.7475    0.6994 H         1 <0>         0.0870
     55 H23         5.0825    1.0260   -1.0460 H         1 <0>         0.1099
     56 H24         7.0885    1.7872    0.1310 H         1 <0>         0.1493
     57 H25         6.2203    3.2022   -0.5110 H         1 <0>         0.1430
     58 H26         8.1219    3.3957    1.7236 H         1 <0>         0.1292
     59 H27         7.1133    4.6819    1.0203 H         1 <0>         0.1311
     60 H28         7.8165    5.2615    3.3271 H         1 <0>         0.1132
     61 H29         6.0503    5.0564    3.2299 H         1 <0>         0.0880
     62 H30         8.0582    2.9747    4.2101 H         1 <0>         0.0822
     63 H31         6.9158    3.8944    5.2212 H         1 <0>         0.0949
     64 H32         6.0702    1.5998    4.6849 H         1 <0>         0.1125
     65 H33         5.0108    2.8767    4.0382 H         1 <0>         0.0879
     66 H34         5.4087    1.1075    2.3456 H         1 <0>         0.1273
     67 H35         7.1622    1.3833    2.4699 H         1 <0>         0.1304
     68 H36         5.1890    3.4036    1.6747 H         1 <0>         0.4292
@<TRIPOS>BOND
     1    1    6 ar
     2    1    2 ar
     3    1   35 1
     4    2    3 ar
     5    2   36 1
     6    3    4 ar
     7    3   26 1
     8    4    5 ar
     9    4   37 1
    10    5    6 ar
    11    5   38 1
    12    6    7 1
    13    7    8 1
    14    7   18 1
    15    7    9 1
    16    9   10 1
    17    9   11 1
    18    9   20 1
    19   11   12 1
    20   12   17 ar
    21   12   13 ar
    22   13   14 ar
    23   13   39 1
    24   14   15 ar
    25   14   19 1
    26   15   16 ar
    27   15   40 1
    28   16   17 ar
    29   16   41 1
    30   17   18 1
    31   19   42 1
    32   20   25 1
    33   20   21 1
    34   20   43 1
    35   21   22 1
    36   21   44 1
    37   21   45 1
    38   22   23 1
    39   22   46 1
    40   22   47 1
    41   23   24 1
    42   23   48 1
    43   23   49 1
    44   24   25 1
    45   24   50 1
    46   24   51 1
    47   25   52 1
    48   25   53 1
    49   26   27 1
    50   27   28 1
    51   27   54 1
    52   27   55 1
    53   28   29 1
    54   28   56 1
    55   28   57 1
    56   29   34 1
    57   29   30 1
    58   29   68 1
    59   30   31 1
    60   30   58 1
    61   30   59 1
    62   31   32 1
    63   31   60 1
    64   31   61 1
    65   32   33 1
    66   32   62 1
    67   32   63 1
    68   33   34 1
    69   33   64 1
    70   33   65 1
    71   34   66 1
    72   34   67 1
