@<TRIPOS>MOLECULE
CHEMBL58688
   69    73     0     0     0
SMALL
USER_CHARGES

@<TRIPOS>ATOM
      1 C1          0.3844    1.7044   -0.3534 C.ar      1 <0>        -0.0985
      2 C2          1.5709    2.4138   -0.3890 C.ar      1 <0>        -0.1126
      3 C3          2.7302    1.8519    0.1125 C.ar      1 <0>        -0.0788
      4 C4          2.7060    0.5794    0.6503 C.ar      1 <0>        -0.1371
      5 C5          1.5171   -0.1342    0.6871 C.ar      1 <0>         0.1077
      6 C6          0.3548    0.4322    0.1834 C.ar      1 <0>        -0.1374
      7 O1          1.4907   -1.3860    1.2154 O.3       1 <0>        -0.4953
      8 C7          4.0215    2.6278    0.0722 C.3       1 <0>         0.2004
      9 C8          4.3810    2.9632   -1.3811 C.3       1 <0>        -0.1285
     10 C9          5.7270    3.6873   -1.4023 C.3       1 <0>        -0.0741
     11 C10         5.7187    4.8446   -0.4386 C.ar      1 <0>        -0.1310
     12 C11         6.6404    5.8643   -0.6095 C.ar      1 <0>        -0.1000
     13 C12         6.6602    6.9411    0.2619 C.ar      1 <0>         0.0558
     14 C13         5.7548    7.0020    1.3112 C.ar      1 <0>        -0.1049
     15 C14         4.8343    5.9883    1.4841 C.ar      1 <0>        -0.1787
     16 C15         4.8134    4.9084    0.6086 C.ar      1 <0>         0.2118
     17 N1          3.8637    3.8947    0.7994 N.pl3     1 <0>        -0.6175
     18 C16         2.7326    4.0956    1.7084 C.3       1 <0>         0.1530
     19 C17         3.0917    3.5811    3.0786 C.ar      1 <0>        -0.1194
     20 C18         2.9521    2.2366    3.3694 C.ar      1 <0>        -0.0697
     21 C19         3.2802    1.7626    4.6248 C.ar      1 <0>        -0.1421
     22 C20         3.7506    2.6367    5.5940 C.ar      1 <0>         0.1143
     23 C21         3.8902    3.9852    5.2995 C.ar      1 <0>        -0.2007
     24 C22         3.5656    4.4534    4.0410 C.ar      1 <0>        -0.0664
     25 O2          4.0736    2.1729    6.8299 O.3       1 <0>        -0.3290
     26 C23         4.5514    3.1298    7.7775 C.3       1 <0>         0.0257
     27 C24         4.8610    2.4266    9.1006 C.3       1 <0>        -0.0005
     28 N2          5.9473    1.4587    8.8982 N.4       1 <0>        -0.3838
     29 C25         6.1581    0.6964   10.1347 C.3       1 <0>        -0.0071
     30 C26         7.2329   -0.3682    9.9051 C.3       1 <0>        -0.1466
     31 C27         8.5409    0.3148    9.4954 C.3       1 <0>        -0.1389
     32 C28         8.2914    1.1663    8.2472 C.3       1 <0>        -0.1453
     33 C29         7.1774    2.1741    8.5383 C.3       1 <0>        -0.0134
     34 O3          7.5674    7.9393    0.0883 O.3       1 <0>        -0.5000
     35 H1         -0.5208    2.1473   -0.7418 H         1 <0>         0.1324
     36 H2          1.5921    3.4083   -0.8095 H         1 <0>         0.1289
     37 H3          3.6120    0.1406    1.0413 H         1 <0>         0.1297
     38 H4         -0.5721   -0.1213    0.2112 H         1 <0>         0.1324
     39 H5          1.3038   -1.4087    2.1639 H         1 <0>         0.3901
     40 H6          4.8198    2.0394    0.5246 H         1 <0>         0.0749
     41 H7          4.4521    2.0433   -1.9614 H         1 <0>         0.0830
     42 H8          3.6127    3.6080   -1.8079 H         1 <0>         0.0761
     43 H9          6.5153    2.9896   -1.1197 H         1 <0>         0.0748
     44 H10         5.9199    4.0587   -2.4088 H         1 <0>         0.0817
     45 H11         7.3468    5.8196   -1.4252 H         1 <0>         0.1284
     46 H12         5.7700    7.8410    1.9911 H         1 <0>         0.1260
     47 H13         4.1292    6.0339    2.3009 H         1 <0>         0.1252
     48 H14         2.4996    5.1587    1.7691 H         1 <0>         0.0847
     49 H15         1.8642    3.5542    1.3331 H         1 <0>         0.0975
     50 H16         2.5859    1.5565    2.6146 H         1 <0>         0.1368
     51 H17         3.1703    0.7124    4.8517 H         1 <0>         0.1307
     52 H18         4.2561    4.6677    6.0523 H         1 <0>         0.1268
     53 H19         3.6783    5.5024    3.8099 H         1 <0>         0.1308
     54 H20         5.4577    3.5990    7.3946 H         1 <0>         0.0861
     55 H21         3.7890    3.8916    7.9406 H         1 <0>         0.1089
     56 H22         5.1659    3.1652    9.8419 H         1 <0>         0.1488
     57 H23         3.9706    1.9053    9.4520 H         1 <0>         0.1423
     58 H24         6.4800    1.3721   10.9271 H         1 <0>         0.1292
     59 H25         5.2255    0.2135   10.4268 H         1 <0>         0.1309
     60 H26         7.3893   -0.9319   10.8249 H         1 <0>         0.1132
     61 H27         6.9119   -1.0447    9.1130 H         1 <0>         0.0878
     62 H28         8.8892    0.9524   10.3080 H         1 <0>         0.0822
     63 H29         9.2941   -0.4419    9.2759 H         1 <0>         0.0948
     64 H30         9.2044    1.6995    7.9819 H         1 <0>         0.1124
     65 H31         7.9924    0.5217    7.4207 H         1 <0>         0.0876
     66 H32         6.9973    2.7821    7.6517 H         1 <0>         0.1272
     67 H33         7.4775    2.8183    9.3647 H         1 <0>         0.1303
     68 H34         7.2578    8.6578   -0.4800 H         1 <0>         0.3866
     69 H35         5.6976    0.8253    8.1535 H         1 <0>         0.4292
@<TRIPOS>BOND
     1    1    6 ar
     2    1    2 ar
     3    1   35 1
     4    2    3 ar
     5    2   36 1
     6    3    4 ar
     7    3    8 1
     8    4    5 ar
     9    4   37 1
    10    5    6 ar
    11    5    7 1
    12    6   38 1
    13    7   39 1
    14    8   17 1
    15    8    9 1
    16    8   40 1
    17    9   10 1
    18    9   41 1
    19    9   42 1
    20   10   11 1
    21   10   43 1
    22   10   44 1
    23   11   16 ar
    24   11   12 ar
    25   12   13 ar
    26   12   45 1
    27   13   14 ar
    28   13   34 1
    29   14   15 ar
    30   14   46 1
    31   15   16 ar
    32   15   47 1
    33   16   17 1
    34   17   18 1
    35   18   19 1
    36   18   48 1
    37   18   49 1
    38   19   24 ar
    39   19   20 ar
    40   20   21 ar
    41   20   50 1
    42   21   22 ar
    43   21   51 1
    44   22   23 ar
    45   22   25 1
    46   23   24 ar
    47   23   52 1
    48   24   53 1
    49   25   26 1
    50   26   27 1
    51   26   54 1
    52   26   55 1
    53   27   28 1
    54   27   56 1
    55   27   57 1
    56   28   33 1
    57   28   29 1
    58   28   69 1
    59   29   30 1
    60   29   58 1
    61   29   59 1
    62   30   31 1
    63   30   60 1
    64   30   61 1
    65   31   32 1
    66   31   62 1
    67   31   63 1
    68   32   33 1
    69   32   64 1
    70   32   65 1
    71   33   66 1
    72   33   67 1
    73   34   68 1
