@<TRIPOS>MOLECULE
CHEMBL182979
   61    66     0     0     0
SMALL
USER_CHARGES

@<TRIPOS>ATOM
      1 C1          1.1631   -0.6117   -0.4390 C.ar      1 <0>        -0.0894
      2 C2          2.3518    0.0921   -0.4484 C.ar      1 <0>        -0.1411
      3 C3          2.3800    1.4096   -0.0147 C.ar      1 <0>         0.1130
      4 C4          1.2137    2.0170    0.4273 C.ar      1 <0>        -0.1435
      5 C5          0.0275    1.3089    0.4346 C.ar      1 <0>        -0.0798
      6 C6          0.0021   -0.0041    0.0020 C.ar      1 <0>        -0.0869
      7 C7         -1.2934   -0.7740    0.0107 C.3       1 <0>        -0.0618
      8 H1         -2.1334   -0.0869    0.1120 H         1 <0>         0.1395
      9 C8         -1.2969   -1.7821    1.1721 C.3       1 <0>         0.1561
     10 H2         -2.1779   -2.4197    1.0986 H         1 <0>         0.0935
     11 O1         -0.1255   -2.5802    1.0967 O.3       1 <0>        -0.3032
     12 C9          0.1551   -3.3416    0.0132 C.ar      1 <0>         0.1264
     13 C10         0.9986   -4.4351    0.1946 C.ar      1 <0>        -0.1163
     14 C11         1.3394   -5.2447   -0.8692 C.ar      1 <0>        -0.1070
     15 C12         0.8443   -4.9772   -2.1372 C.ar      1 <0>         0.0919
     16 C13        -0.0005   -3.8960   -2.3286 C.ar      1 <0>        -0.0900
     17 C14        -0.3494   -3.0850   -1.2568 C.ar      1 <0>        -0.1474
     18 S1         -1.4568   -1.7323   -1.5285 S.3       1 <0>        -0.0922
     19 O2          1.1866   -5.7716   -3.1864 O.3       1 <0>        -0.4926
     20 C15        -1.3198   -1.0400    2.4835 C.ar      1 <0>        -0.1278
     21 C16        -0.1522   -0.5024    2.9927 C.ar      1 <0>        -0.0363
     22 C17        -0.1704    0.1779    4.1949 C.ar      1 <0>        -0.1538
     23 C18        -1.3617    0.3218    4.8912 C.ar      1 <0>         0.1455
     24 C19        -2.5320   -0.2182    4.3779 C.ar      1 <0>        -0.2105
     25 C20        -2.5094   -0.8931    3.1727 C.ar      1 <0>        -0.0585
     26 O3         -1.3822    0.9902    6.0743 O.3       1 <0>        -0.3132
     27 C21        -2.6441    1.0995    6.7359 C.3       1 <0>         0.0589
     28 C22        -2.4698    1.8785    8.0411 C.3       1 <0>        -0.1116
     29 C23        -3.8208    1.9956    8.7495 C.3       1 <0>        -0.0880
     30 C24        -4.7514    2.9794    7.9977 C.3       1 <0>        -0.0944
     31 C25        -5.7465    3.4573    9.0753 C.3       1 <0>        -0.1690
     32 C26        -5.3634    4.6697    9.9263 C.3       1 <0>        -0.1526
     33 C27        -5.0512    3.2605   10.4339 C.3       1 <0>        -0.1684
     34 C28        -3.6579    2.6699   10.1344 C.3       1 <0>        -0.0899
     35 O4          3.5482    2.1039   -0.0225 O.3       1 <0>        -0.4990
     36 H3          1.1398   -1.6359   -0.7807 H         1 <0>         0.1304
     37 H4          3.2585   -0.3831   -0.7926 H         1 <0>         0.1291
     38 H5          1.2331    3.0424    0.7657 H         1 <0>         0.1308
     39 H6         -0.8807    1.7813    0.7787 H         1 <0>         0.1263
     40 H7          1.3899   -4.6512    1.1778 H         1 <0>         0.1413
     41 H8          1.9942   -6.0894   -0.7144 H         1 <0>         0.1406
     42 H9         -0.3883   -3.6831   -3.3139 H         1 <0>         0.1385
     43 H10         0.5878   -6.5179   -3.3264 H         1 <0>         0.3917
     44 H11         0.7750   -0.6147    2.4504 H         1 <0>         0.1321
     45 H12         0.7420    0.5970    4.5927 H         1 <0>         0.1328
     46 H13        -3.4607   -0.1075    4.9180 H         1 <0>         0.1315
     47 H14        -3.4210   -1.3098    2.7705 H         1 <0>         0.1283
     48 H15        -3.3483    1.6246    6.0906 H         1 <0>         0.0643
     49 H16        -3.0265    0.1028    6.9560 H         1 <0>         0.0632
     50 H17        -1.7655    1.3535    8.6864 H         1 <0>         0.0770
     51 H18        -2.0873    2.8753    7.8210 H         1 <0>         0.0763
     52 H19        -4.2891    1.0164    8.8493 H         1 <0>         0.0817
     53 H20        -4.1801    3.8210    7.6059 H         1 <0>         0.0706
     54 H21        -5.2780    2.4668    7.1927 H         1 <0>         0.0691
     55 H22        -6.7976    3.2054    8.9348 H         1 <0>         0.1091
     56 H23        -4.5257    5.2784    9.5858 H         1 <0>         0.0923
     57 H24        -6.1699    5.2138   10.4179 H         1 <0>         0.0979
     58 H25        -5.5925    2.8722   11.2966 H         1 <0>         0.1097
     59 H26        -3.3865    1.9313   10.8887 H         1 <0>         0.0720
     60 H27        -2.9100    3.4614   10.0877 H         1 <0>         0.0709
     61 H28         3.7178    2.5792   -0.8474 H         1 <0>         0.3922
@<TRIPOS>BOND
     1    1    6 ar
     2    1    2 ar
     3    1   36 1
     4    2    3 ar
     5    2   37 1
     6    3    4 ar
     7    3   35 1
     8    4    5 ar
     9    4   38 1
    10    5    6 ar
    11    5   39 1
    12    6    7 1
    13    7    8 1
    14    7   18 1
    15    7    9 1
    16    9   10 1
    17    9   11 1
    18    9   20 1
    19   11   12 1
    20   12   17 ar
    21   12   13 ar
    22   13   14 ar
    23   13   40 1
    24   14   15 ar
    25   14   41 1
    26   15   16 ar
    27   15   19 1
    28   16   17 ar
    29   16   42 1
    30   17   18 1
    31   19   43 1
    32   20   25 ar
    33   20   21 ar
    34   21   22 ar
    35   21   44 1
    36   22   23 ar
    37   22   45 1
    38   23   24 ar
    39   23   26 1
    40   24   25 ar
    41   24   46 1
    42   25   47 1
    43   26   27 1
    44   27   28 1
    45   27   48 1
    46   27   49 1
    47   28   29 1
    48   28   50 1
    49   28   51 1
    50   29   34 1
    51   29   30 1
    52   29   52 1
    53   30   31 1
    54   30   53 1
    55   30   54 1
    56   31   33 1
    57   31   32 1
    58   31   55 1
    59   32   33 1
    60   32   56 1
    61   32   57 1
    62   33   34 1
    63   33   58 1
    64   34   59 1
    65   34   60 1
    66   35   61 1
