@<TRIPOS>MOLECULE
CHEMBL10560
   45    47     0     0     0
SMALL
USER_CHARGES

@<TRIPOS>ATOM
      1 C1         -0.0187    1.5258    0.0104 C.3       1 <0>        -0.1632
      2 C2          0.0021   -0.0041    0.0020 C.3       1 <0>        -0.1204
      3 C3          0.7421   -0.5109    1.2415 C.3       1 <0>        -0.0105
      4 C4          0.0015   -0.0327    2.4886 C.3       1 <0>        -0.1060
      5 C5         -1.4412   -0.5458    2.4345 C.3       1 <0>        -0.1421
      6 C6         -1.4511   -2.0732    2.3699 C.3       1 <0>         0.2539
      7 C7         -0.6823   -2.5502    1.1334 C.3       1 <0>        -0.0973
      8 C8          0.7544   -2.0386    1.2189 C.3       1 <0>        -0.0739
      9 H1          1.2191   -2.4116    2.1316 H         1 <0>         0.0768
     10 C9          1.5716   -2.4925    0.0091 C.3       1 <0>        -0.1171
     11 C10         3.0400   -2.1619    0.2741 C.3       1 <0>        -0.0808
     12 C11         3.2023   -0.7418    0.7488 C.ar      1 <0>        -0.0565
     13 C12         2.1467    0.0212    1.2202 C.ar      1 <0>        -0.0688
     14 C13         2.3632    1.3206    1.6573 C.ar      1 <0>        -0.0979
     15 C14         3.6317    1.8615    1.6520 C.ar      1 <0>        -0.1498
     16 C15         4.7008    1.0995    1.2043 C.ar      1 <0>         0.1018
     17 C16         4.4787   -0.1968    0.7231 C.ar      1 <0>        -0.1474
     18 O1          5.9545    1.6239    1.1909 O.3       1 <0>        -0.4996
     19 C17        -0.8151   -2.6175    3.5807 C.1       1 <0>        -0.2144
     20 C18        -0.3078   -3.0516    4.5464 C.1       1 <0>        -0.1649
     21 C19         0.3282   -3.5959    5.7572 C.3       1 <0>        -0.0458
     22 O2         -2.8011   -2.5360    2.2969 O.3       1 <0>        -0.5495
     23 H2          1.0039    1.9031    0.0027 H         1 <0>         0.0625
     24 H3         -0.5459    1.8868   -0.8726 H         1 <0>         0.0541
     25 H4         -0.5289    1.8773    0.9072 H         1 <0>         0.0562
     26 H5         -1.0205   -0.3814    0.0098 H         1 <0>         0.0755
     27 H6          0.5123   -0.3556   -0.8948 H         1 <0>         0.0680
     28 H7          0.4949   -0.4232    3.3786 H         1 <0>         0.0671
     29 H8          0.0007    1.0570    2.5176 H         1 <0>         0.0751
     30 H9         -1.9754   -0.2179    3.3263 H         1 <0>         0.0686
     31 H10        -1.9354   -0.1431    1.5503 H         1 <0>         0.0863
     32 H11        -0.6808   -3.6398    1.1021 H         1 <0>         0.0750
     33 H12        -1.1570   -2.1576    0.2342 H         1 <0>         0.0856
     34 H13         1.4560   -3.5674   -0.1305 H         1 <0>         0.0720
     35 H14         1.2313   -1.9666   -0.8829 H         1 <0>         0.0741
     36 H15         3.4268   -2.8394    1.0353 H         1 <0>         0.0770
     37 H16         3.6084   -2.2981   -0.6459 H         1 <0>         0.0775
     38 H17         1.5303    1.9136    2.0053 H         1 <0>         0.1284
     39 H18         3.7918    2.8732    1.9943 H         1 <0>         0.1275
     40 H19         5.3069   -0.7900    0.3643 H         1 <0>         0.1267
     41 H20         6.4501    1.4793    2.0085 H         1 <0>         0.3901
     42 H21         0.3219   -4.6849    5.7126 H         1 <0>         0.0819
     43 H22         1.3569   -3.2407    5.8182 H         1 <0>         0.0816
     44 H23        -0.2232   -3.2651    6.6373 H         1 <0>         0.0815
     45 H24        -3.3467   -2.2781    3.0524 H         1 <0>         0.3807
@<TRIPOS>BOND
     1    1    2 1
     2    1   23 1
     3    1   24 1
     4    1   25 1
     5    2    3 1
     6    2   26 1
     7    2   27 1
     8    3    8 1
     9    3   13 1
    10    3    4 1
    11    4    5 1
    12    4   28 1
    13    4   29 1
    14    5    6 1
    15    5   30 1
    16    5   31 1
    17    6    7 1
    18    6   19 1
    19    6   22 1
    20    7    8 1
    21    7   32 1
    22    7   33 1
    23    8    9 1
    24    8   10 1
    25   10   11 1
    26   10   34 1
    27   10   35 1
    28   11   12 1
    29   11   36 1
    30   11   37 1
    31   12   17 ar
    32   12   13 ar
    33   13   14 ar
    34   14   15 ar
    35   14   38 1
    36   15   16 ar
    37   15   39 1
    38   16   17 ar
    39   16   18 1
    40   17   40 1
    41   18   41 1
    42   19   20 3
    43   20   21 1
    44   21   42 1
    45   21   43 1
    46   21   44 1
    47   22   45 1
