@<TRIPOS>MOLECULE
CHEMBL485712
   38    40     0     0     0
SMALL
USER_CHARGES

@<TRIPOS>ATOM
      1 C1          1.3242   -1.2321    1.4240 C.1       1 <0>        -0.1739
      2 C2          1.1075   -0.0818    1.3338 C.1       1 <0>        -0.2154
      3 C3          0.8358    1.3605    1.2206 C.3       1 <0>         0.2493
      4 N1          1.9563    2.0168    0.5423 N.pl3     1 <0>        -0.6348
      5 C4          3.1111    2.4359    1.1323 C.2       1 <0>         0.3524
      6 N2          3.9499    2.9854    0.3328 N.2       1 <0>        -0.5560
      7 C5          3.4090    3.0067   -1.0336 C.3       1 <0>         0.1028
      8 C6          2.0298    2.3307   -0.8948 C.3       1 <0>         0.1549
      9 C7          1.9659    1.0707   -1.7192 C.ar      1 <0>        -0.1006
     10 C8          2.5409   -0.0940   -1.2455 C.ar      1 <0>        -0.0619
     11 C9          2.4842   -1.2502   -1.9992 C.ar      1 <0>        -0.1414
     12 C10         1.8491   -1.2428   -3.2330 C.ar      1 <0>         0.1261
     13 C11         1.2724   -0.0739   -3.7068 C.ar      1 <0>        -0.1408
     14 C12         1.3270    1.0799   -2.9465 C.ar      1 <0>        -0.0023
     15 Cl1         0.5994    2.5420   -3.5350 Cl        1 <0>        -0.0518
     16 O1          1.7927   -2.3792   -3.9761 O.3       1 <0>        -0.4934
     17 C13         3.2622    4.4246   -1.5225 C.ar      1 <0>        -0.0754
     18 C14         3.0514    5.4485   -0.6175 C.ar      1 <0>        -0.0647
     19 C15         2.9161    6.7489   -1.0629 C.ar      1 <0>        -0.1423
     20 C16         2.9922    7.0283   -2.4200 C.ar      1 <0>         0.1217
     21 C17         3.2041    6.0004   -3.3266 C.ar      1 <0>        -0.1395
     22 C18         3.3442    4.7007   -2.8758 C.ar      1 <0>        -0.0071
     23 Cl2         3.6166    3.4139   -4.0088 Cl        1 <0>        -0.0541
     24 O2          2.8588    8.3071   -2.8600 O.3       1 <0>        -0.4945
     25 H1          1.5180   -2.2609    1.5047 H         1 <0>         0.2161
     26 H2         -0.0773    1.5142    0.6456 H         1 <0>         0.1018
     27 H3          0.7141    1.7865    2.2165 H         1 <0>         0.1063
     28 H4          3.3044    2.3149    2.1880 H         1 <0>         0.1917
     29 H5          4.0463    2.4329   -1.7065 H         1 <0>         0.1099
     30 H6          1.2347    3.0196   -1.1799 H         1 <0>         0.1032
     31 H7          3.0353   -0.0998   -0.2853 H         1 <0>         0.1343
     32 H8          2.9343   -2.1593   -1.6287 H         1 <0>         0.1348
     33 H9          0.7775   -0.0658   -4.6667 H         1 <0>         0.1412
     34 H10         1.0147   -2.9259   -3.8004 H         1 <0>         0.3952
     35 H11         2.9922    5.2311    0.4388 H         1 <0>         0.1364
     36 H12         2.7507    7.5479   -0.3553 H         1 <0>         0.1360
     37 H13         3.2637    6.2154   -4.3833 H         1 <0>         0.1406
     38 H14         3.6929    8.7933   -2.9145 H         1 <0>         0.3953
@<TRIPOS>BOND
     1    1    2 3
     2    1   25 1
     3    2    3 1
     4    3    4 1
     5    3   26 1
     6    3   27 1
     7    4    8 1
     8    4    5 1
     9    5    6 2
    10    5   28 1
    11    6    7 1
    12    7    8 1
    13    7   17 1
    14    7   29 1
    15    8    9 1
    16    8   30 1
    17    9   14 ar
    18    9   10 ar
    19   10   11 ar
    20   10   31 1
    21   11   12 ar
    22   11   32 1
    23   12   13 ar
    24   12   16 1
    25   13   14 ar
    26   13   33 1
    27   14   15 1
    28   16   34 1
    29   17   22 ar
    30   17   18 ar
    31   18   19 ar
    32   18   35 1
    33   19   20 ar
    34   19   36 1
    35   20   21 ar
    36   20   24 1
    37   21   22 ar
    38   21   37 1
    39   22   23 1
    40   24   38 1
