@<TRIPOS>MOLECULE
CHEMBL472469
   54    57     0     0     0
SMALL
USER_CHARGES

@<TRIPOS>ATOM
      1 C1         -0.0178    1.4648    0.0101 C.3       1 <0>        -0.0546
      2 N1          0.0021   -0.0041    0.0020 N.4       1 <0>        -0.3889
      3 C2          0.6897   -0.4778   -1.2066 C.3       1 <0>        -0.0475
      4 C3          0.7126   -0.4907    1.1921 C.3       1 <0>        -0.0016
      5 C4         -0.0711   -0.1034    2.4478 C.3       1 <0>         0.0239
      6 O1         -1.3280   -0.7834    2.4535 O.3       1 <0>        -0.3282
      7 C5         -2.1518   -0.5482    3.5082 C.ar      1 <0>         0.1156
      8 C6         -1.7576    0.3251    4.5135 C.ar      1 <0>        -0.1985
      9 C7         -2.5904    0.5664    5.5851 C.ar      1 <0>        -0.0651
     10 C8         -3.8319   -0.0682    5.6588 C.ar      1 <0>        -0.0563
     11 C9         -4.2247   -0.9451    4.6457 C.ar      1 <0>        -0.0515
     12 C10        -3.3880   -1.1773    3.5750 C.ar      1 <0>        -0.1362
     13 C11        -4.7283    0.1874    6.8068 C.2       1 <0>        -0.0137
     14 C12        -5.9352    0.8035    6.6207 C.2       1 <0>        -0.0192
     15 C13        -6.7957    1.1082    7.8207 C.3       1 <0>        -0.1178
     16 C14        -7.4236   -0.1664    8.3727 C.3       1 <0>         0.0740
     17 O2         -6.4753   -1.2219    8.4535 O.3       1 <0>        -0.3257
     18 C15        -5.2503   -0.9277    8.9604 C.ar      1 <0>         0.1160
     19 C16        -4.3356   -0.2246    8.1699 C.ar      1 <0>        -0.0791
     20 C17        -3.0755    0.0779    8.6780 C.ar      1 <0>        -0.0924
     21 C18        -2.7404   -0.3213    9.9571 C.ar      1 <0>        -0.1251
     22 C19        -3.6508   -1.0186   10.7318 C.ar      1 <0>        -0.0940
     23 C20        -4.8978   -1.3160   10.2396 C.ar      1 <0>        -0.1291
     24 C21        -6.3843    1.1621    5.2769 C.2       1 <0>        -0.1067
     25 C22        -7.4708    0.6821    4.5606 C.2       1 <0>        -0.1426
     26 C23        -7.6908    1.1802    3.2980 C.2       1 <0>        -0.1503
     27 C24        -6.8454    2.1180    2.7957 C.2       1 <0>        -0.1825
     28 S1         -5.6823    2.3383    4.1316 S.3       1 <0>         0.0518
     29 H1          1.0047    1.8421    0.0024 H         1 <0>         0.1247
     30 H2         -0.5450    1.8259   -0.8730 H         1 <0>         0.1272
     31 H3         -0.5280    1.8163    0.9069 H         1 <0>         0.1216
     32 H4          1.7123   -0.1005   -1.2143 H         1 <0>         0.1231
     33 H5          0.7044   -1.5677   -1.2126 H         1 <0>         0.1248
     34 H6          0.1625   -0.1167   -2.0897 H         1 <0>         0.1257
     35 H7          0.8051   -1.5756    1.1418 H         1 <0>         0.1426
     36 H8          1.7055   -0.0428    1.2310 H         1 <0>         0.1493
     37 H9          0.4987   -0.3857    3.3332 H         1 <0>         0.1090
     38 H10        -0.2405    0.9733    2.4528 H         1 <0>         0.0870
     39 H11        -0.7971    0.8155    4.4558 H         1 <0>         0.1288
     40 H12        -2.2828    1.2451    6.3669 H         1 <0>         0.1311
     41 H13        -5.1841   -1.4382    4.6991 H         1 <0>         0.1343
     42 H14        -3.6927   -1.8523    2.7889 H         1 <0>         0.1336
     43 H15        -6.1822    1.5701    8.5943 H         1 <0>         0.0861
     44 H16        -7.5857    1.8003    7.5294 H         1 <0>         0.0949
     45 H17        -7.8194    0.0338    9.3684 H         1 <0>         0.0659
     46 H18        -8.2417   -0.4718    7.7203 H         1 <0>         0.1032
     47 H19        -2.3633    0.6216    8.0751 H         1 <0>         0.1261
     48 H20        -1.7635   -0.0885   10.3544 H         1 <0>         0.1294
     49 H21        -3.3796   -1.3266   11.7308 H         1 <0>         0.1324
     50 H22        -5.6005   -1.8614   10.8522 H         1 <0>         0.1345
     51 H23        -8.1271   -0.0641    4.9837 H         1 <0>         0.1363
     52 H24        -8.5268    0.8293    2.7113 H         1 <0>         0.1359
     53 H25        -6.8728    2.6086    1.8339 H         1 <0>         0.1839
     54 H26        -0.9445   -0.3533    0.0092 H         1 <0>         0.4340
@<TRIPOS>BOND
     1    1    2 1
     2    1   29 1
     3    1   30 1
     4    1   31 1
     5    2    3 1
     6    2    4 1
     7    2   54 1
     8    3   32 1
     9    3   33 1
    10    3   34 1
    11    4    5 1
    12    4   35 1
    13    4   36 1
    14    5    6 1
    15    5   37 1
    16    5   38 1
    17    6    7 1
    18    7   12 ar
    19    7    8 ar
    20    8    9 ar
    21    8   39 1
    22    9   10 ar
    23    9   40 1
    24   10   11 ar
    25   10   13 1
    26   11   12 ar
    27   11   41 1
    28   12   42 1
    29   13   19 1
    30   13   14 2
    31   14   15 1
    32   14   24 1
    33   15   16 1
    34   15   43 1
    35   15   44 1
    36   16   17 1
    37   16   45 1
    38   16   46 1
    39   17   18 1
    40   18   23 ar
    41   18   19 ar
    42   19   20 ar
    43   20   21 ar
    44   20   47 1
    45   21   22 ar
    46   21   48 1
    47   22   23 ar
    48   22   49 1
    49   23   50 1
    50   24   28 1
    51   24   25 2
    52   25   26 1
    53   25   51 1
    54   26   27 2
    55   26   52 1
    56   27   28 1
    57   27   53 1
