@<TRIPOS>MOLECULE
CHEMBL121978
   58    62     0     0     0
SMALL
USER_CHARGES

@<TRIPOS>ATOM
      1 C1         -0.2552    2.2109    3.4802 C.3       1 <0>        -0.0472
      2 N1         -0.1824    0.8296    2.9856 N.4       1 <0>        -0.3839
      3 C2         -1.5412    0.3174    2.7677 C.3       1 <0>        -0.0234
      4 C3         -1.4652   -1.0803    2.1444 C.3       1 <0>         0.0981
      5 N2         -0.6268   -1.9296    3.0046 N.pl3     1 <0>        -0.6440
      6 C4          0.6925   -1.4191    3.4083 C.3       1 <0>         0.0988
      7 C5          0.5147   -0.0055    3.9719 C.3       1 <0>        -0.0230
      8 C6         -1.0710   -3.1848    3.4265 C.ar      1 <0>         0.2084
      9 C7         -2.3618   -3.6028    3.1285 C.ar      1 <0>        -0.1870
     10 C8         -2.7977   -4.8447    3.5468 C.ar      1 <0>        -0.0509
     11 C9         -1.9509   -5.6716    4.2619 C.ar      1 <0>        -0.1193
     12 C10        -0.6653   -5.2587    4.5602 C.ar      1 <0>        -0.0271
     13 C11        -0.2212   -4.0204    4.1401 C.ar      1 <0>        -0.1871
     14 C12        -2.4304   -7.0257    4.7175 C.3       1 <0>         0.1517
     15 H1         -3.5202   -7.0447    4.7199 H         1 <0>         0.0940
     16 C13        -1.8993   -8.1076    3.7622 C.3       1 <0>        -0.0646
     17 H2         -2.1789   -7.8677    2.7363 H         1 <0>         0.1387
     18 S1         -2.6650   -9.6815    4.2629 S.3       1 <0>        -0.0831
     19 C14        -2.5379   -9.6288    6.0241 C.ar      1 <0>        -0.1483
     20 C15        -2.7660  -10.7894    6.7517 C.ar      1 <0>        -0.0895
     21 C16        -2.6806  -10.7721    8.1343 C.ar      1 <0>         0.0980
     22 C17        -2.3688   -9.5887    8.7875 C.ar      1 <0>        -0.1073
     23 C18        -2.1388   -8.4362    8.0649 C.ar      1 <0>        -0.1155
     24 C19        -2.2154   -8.4428    6.6742 C.ar      1 <0>         0.1213
     25 O1         -1.9483   -7.2841    6.0272 O.3       1 <0>        -0.3057
     26 O2         -2.9017  -11.9087    8.8472 O.3       1 <0>        -0.4920
     27 C20        -0.3997   -8.2037    3.8770 C.ar      1 <0>        -0.0865
     28 C21         0.4039   -7.6693    2.8869 C.ar      1 <0>        -0.0817
     29 C22         1.7788   -7.7566    2.9896 C.ar      1 <0>        -0.1455
     30 C23         2.3530   -8.3806    4.0876 C.ar      1 <0>         0.1136
     31 C24         1.5444   -8.9156    5.0799 C.ar      1 <0>        -0.1402
     32 C25         0.1702   -8.8212    4.9751 C.ar      1 <0>        -0.0884
     33 O3          3.7052   -8.4681    4.1907 O.3       1 <0>        -0.4970
     34 H3          0.7531    2.5951    3.6348 H         1 <0>         0.1255
     35 H4         -0.7725    2.8319    2.7489 H         1 <0>         0.1255
     36 H5         -0.8002    2.2307    4.4240 H         1 <0>         0.1219
     37 H6         -2.0660    0.2620    3.7215 H         1 <0>         0.1327
     38 H7         -2.0783    0.9864    2.0955 H         1 <0>         0.1416
     39 H8         -2.4666   -1.5051    2.0746 H         1 <0>         0.1275
     40 H9         -1.0219   -1.0146    1.1508 H         1 <0>         0.0890
     41 H10         1.1177   -2.0680    4.1740 H         1 <0>         0.1267
     42 H11         1.3537   -1.3877    2.5423 H         1 <0>         0.0886
     43 H12         1.4924    0.4257    4.1870 H         1 <0>         0.1415
     44 H13        -0.0723   -0.0511    4.8892 H         1 <0>         0.1327
     45 H14        -3.0239   -2.9571    2.5707 H         1 <0>         0.1270
     46 H15        -3.8011   -5.1702    3.3154 H         1 <0>         0.1319
     47 H16        -0.0066   -5.9070    5.1189 H         1 <0>         0.1308
     48 H17         0.7845   -3.7003    4.3696 H         1 <0>         0.1243
     49 H18        -3.0103  -11.7077    6.2384 H         1 <0>         0.1405
     50 H19        -2.3054   -9.5696    9.8655 H         1 <0>         0.1421
     51 H20        -1.8972   -7.5197    8.5828 H         1 <0>         0.1400
     52 H21        -2.1064  -12.4363    9.0028 H         1 <0>         0.3946
     53 H22        -0.0436   -7.1836    2.0324 H         1 <0>         0.1245
     54 H23         2.4061   -7.3397    2.2156 H         1 <0>         0.1294
     55 H24         1.9890   -9.4019    5.9356 H         1 <0>         0.1303
     56 H25        -0.4596   -9.2336    5.7494 H         1 <0>         0.1315
     57 H26         4.1138   -7.7218    4.6501 H         1 <0>         0.3911
     58 H27         0.3248    0.8122    2.1135 H         1 <0>         0.4248
@<TRIPOS>BOND
     1    1    2 1
     2    1   34 1
     3    1   35 1
     4    1   36 1
     5    2    7 1
     6    2    3 1
     7    2   58 1
     8    3    4 1
     9    3   37 1
    10    3   38 1
    11    4    5 1
    12    4   39 1
    13    4   40 1
    14    5    6 1
    15    5    8 1
    16    6    7 1
    17    6   41 1
    18    6   42 1
    19    7   43 1
    20    7   44 1
    21    8   13 ar
    22    8    9 ar
    23    9   10 ar
    24    9   45 1
    25   10   11 ar
    26   10   46 1
    27   11   12 ar
    28   11   14 1
    29   12   13 ar
    30   12   47 1
    31   13   48 1
    32   14   15 1
    33   14   25 1
    34   14   16 1
    35   16   17 1
    36   16   18 1
    37   16   27 1
    38   18   19 1
    39   19   24 ar
    40   19   20 ar
    41   20   21 ar
    42   20   49 1
    43   21   22 ar
    44   21   26 1
    45   22   23 ar
    46   22   50 1
    47   23   24 ar
    48   23   51 1
    49   24   25 1
    50   26   52 1
    51   27   32 ar
    52   27   28 ar
    53   28   29 ar
    54   28   53 1
    55   29   30 ar
    56   29   54 1
    57   30   31 ar
    58   30   33 1
    59   31   32 ar
    60   31   55 1
    61   32   56 1
    62   33   57 1
