@<TRIPOS>MOLECULE
CHEMBL538148
   38    39     0     0     0
SMALL
USER_CHARGES

@<TRIPOS>ATOM
      1 C1         -1.6050   -0.3294   -0.7771 C.3       1 <0>        -0.1540
      2 C2         -0.1492   -0.1474   -0.3431 C.3       1 <0>        -0.1230
      3 C3          0.7796   -0.5866   -1.4768 C.3       1 <0>        -0.0312
      4 H1          0.5273   -0.0401   -2.3856 H         1 <0>         0.0932
      5 C4          0.6143   -2.0651   -1.7175 C.ar      1 <0>         0.1359
      6 C5          0.3598   -2.9056   -0.6497 C.ar      1 <0>        -0.1543
      7 C6          0.2091   -4.2635   -0.8788 C.ar      1 <0>        -0.1020
      8 C7          0.3209   -4.7301   -2.1848 C.ar      1 <0>         0.0489
      9 C8          0.5776   -3.8248   -3.2039 C.ar      1 <0>         0.0838
     10 N1          0.7091   -2.5389   -2.9442 N.ar      1 <0>        -0.4525
     11 O1          0.1810   -6.0541   -2.4581 O.3       1 <0>        -0.4928
     12 C9          2.2304   -0.2918   -1.0907 C.3       1 <0>        -0.0416
     13 H2          2.4592   -0.7756   -0.1411 H         1 <0>         0.0796
     14 C10         2.4245    1.2196   -0.9528 C.3       1 <0>        -0.1455
     15 C11         3.1521   -0.8212   -2.1590 C.ar      1 <0>        -0.0799
     16 C12         3.0523   -0.3467   -3.4538 C.ar      1 <0>        -0.0775
     17 C13         3.8957   -0.8308   -4.4350 C.ar      1 <0>        -0.1406
     18 C14         4.8437   -1.7934   -4.1202 C.ar      1 <0>         0.1006
     19 C15         4.9422   -2.2675   -2.8201 C.ar      1 <0>        -0.1452
     20 C16         4.0999   -1.7765   -1.8414 C.ar      1 <0>        -0.1013
     21 O2          5.6743   -2.2715   -5.0838 O.3       1 <0>        -0.5010
     22 H3         -1.8173    0.3267   -1.6212 H         1 <0>         0.0560
     23 H4         -1.7694   -1.3658   -1.0722 H         1 <0>         0.0521
     24 H5         -2.2656   -0.0788    0.0529 H         1 <0>         0.0569
     25 H6          0.0322    0.9019   -0.1107 H         1 <0>         0.0770
     26 H7          0.0449   -0.7543    0.5413 H         1 <0>         0.0677
     27 H8          0.2797   -2.5082    0.3514 H         1 <0>         0.1385
     28 H9          0.0100   -4.9433   -0.0636 H         1 <0>         0.1382
     29 H10         0.6663   -4.1764   -4.2212 H         1 <0>         0.1574
     30 H11        -0.7276   -6.3217   -2.6528 H         1 <0>         0.3920
     31 H12         3.4798    1.4369   -0.7881 H         1 <0>         0.0600
     32 H13         2.0899    1.7135   -1.8651 H         1 <0>         0.0599
     33 H14         1.8420    1.5850   -0.1071 H         1 <0>         0.0633
     34 H15         2.3140    0.4027   -3.6984 H         1 <0>         0.1232
     35 H16         3.8168   -0.4603   -5.4465 H         1 <0>         0.1256
     36 H17         5.6794   -3.0169   -2.5726 H         1 <0>         0.1240
     37 H18         4.1791   -2.1420   -0.8283 H         1 <0>         0.1197
     38 H19         6.4983   -1.7737   -5.1752 H         1 <0>         0.3888
@<TRIPOS>BOND
     1    1    2 1
     2    1   22 1
     3    1   23 1
     4    1   24 1
     5    2    3 1
     6    2   25 1
     7    2   26 1
     8    3    4 1
     9    3    5 1
    10    3   12 1
    11    5   10 ar
    12    5    6 ar
    13    6    7 ar
    14    6   27 1
    15    7    8 ar
    16    7   28 1
    17    8    9 ar
    18    8   11 1
    19    9   10 ar
    20    9   29 1
    21   11   30 1
    22   12   13 1
    23   12   14 1
    24   12   15 1
    25   14   31 1
    26   14   32 1
    27   14   33 1
    28   15   20 ar
    29   15   16 ar
    30   16   17 ar
    31   16   34 1
    32   17   18 ar
    33   17   35 1
    34   18   19 ar
    35   18   21 1
    36   19   20 ar
    37   19   36 1
    38   20   37 1
    39   21   38 1
