@<TRIPOS>MOLECULE
CHEMBL306878
   41    43     0     0     0
SMALL
USER_CHARGES

@<TRIPOS>ATOM
      1 C1         -0.0187    1.5258    0.0104 C.3       1 <0>        -0.1618
      2 C2          0.0021   -0.0041    0.0020 C.3       1 <0>        -0.1005
      3 C3         -1.4333   -0.5336    0.0129 C.3       1 <0>        -0.0157
      4 C4         -2.1121   -0.2291   -1.3004 C.ar      1 <0>        -0.0722
      5 C5         -2.4075    0.9443   -1.9522 C.ar      1 <0>        -0.1268
      6 C6         -3.0557    0.9111   -3.1813 C.ar      1 <0>         0.1098
      7 C7         -3.4052   -0.3070   -3.7503 C.ar      1 <0>        -0.1449
      8 C8         -3.1122   -1.4865   -3.1025 C.ar      1 <0>        -0.0790
      9 C9         -2.4590   -1.4608   -1.8644 C.ar      1 <0>        -0.0740
     10 C10        -2.0283   -2.5394   -0.9629 C.2       1 <0>        -0.0634
     11 C11        -1.4337   -2.0401    0.1284 C.2       1 <0>        -0.0884
     12 C12        -0.8774   -2.8229    1.2458 C.ar      1 <0>        -0.0336
     13 C13        -1.4452   -2.7278    2.5196 C.ar      1 <0>        -0.0879
     14 C14        -0.9216   -3.4622    3.5615 C.ar      1 <0>        -0.1424
     15 C15         0.1688   -4.2955    3.3476 C.ar      1 <0>         0.1070
     16 C16         0.7367   -4.3930    2.0839 C.ar      1 <0>        -0.1428
     17 C17         0.2163   -3.6673    1.0343 C.ar      1 <0>        -0.0877
     18 O1          0.6818   -5.0173    4.3781 O.3       1 <0>        -0.4999
     19 C18        -2.2294   -4.0088   -1.2305 C.3       1 <0>        -0.0788
     20 C19        -3.6245   -4.4264   -0.7614 C.3       1 <0>        -0.1450
     21 O2         -3.3481    2.0706   -3.8263 O.3       1 <0>        -0.4969
     22 H1          1.0039    1.9031    0.0027 H         1 <0>         0.0583
     23 H2         -0.5459    1.8868   -0.8726 H         1 <0>         0.0611
     24 H3         -0.5289    1.8773    0.9072 H         1 <0>         0.0562
     25 H4          0.5123   -0.3556   -0.8948 H         1 <0>         0.0659
     26 H5          0.5293   -0.3651    0.8851 H         1 <0>         0.0707
     27 H6         -1.9913   -0.0921    0.8385 H         1 <0>         0.1030
     28 H7         -2.1364    1.8913   -1.5096 H         1 <0>         0.1333
     29 H8         -3.9095   -0.3292   -4.7051 H         1 <0>         0.1316
     30 H9         -3.3865   -2.4308   -3.5492 H         1 <0>         0.1270
     31 H10        -2.2926   -2.0795    2.6870 H         1 <0>         0.1276
     32 H11        -1.3597   -3.3894    4.5460 H         1 <0>         0.1308
     33 H12         1.5847   -5.0420    1.9225 H         1 <0>         0.1309
     34 H13         0.6558   -3.7471    0.0510 H         1 <0>         0.1280
     35 H14         0.2833   -5.8922    4.4822 H         1 <0>         0.3920
     36 H15        -2.1330   -4.2000   -2.2993 H         1 <0>         0.0723
     37 H16        -1.4772   -4.5829   -0.6894 H         1 <0>         0.0750
     38 H17        -3.7209   -4.2352    0.3074 H         1 <0>         0.0552
     39 H18        -4.3767   -3.8524   -1.3025 H         1 <0>         0.0557
     40 H19        -3.7699   -5.4892   -0.9549 H         1 <0>         0.0586
     41 H20        -2.6515    2.3746   -4.4241 H         1 <0>         0.3917
@<TRIPOS>BOND
     1    1    2 1
     2    1   22 1
     3    1   23 1
     4    1   24 1
     5    2    3 1
     6    2   25 1
     7    2   26 1
     8    3   11 1
     9    3    4 1
    10    3   27 1
    11    4    9 ar
    12    4    5 ar
    13    5    6 ar
    14    5   28 1
    15    6    7 ar
    16    6   21 1
    17    7    8 ar
    18    7   29 1
    19    8    9 ar
    20    8   30 1
    21    9   10 1
    22   10   11 2
    23   10   19 1
    24   11   12 1
    25   12   17 ar
    26   12   13 ar
    27   13   14 ar
    28   13   31 1
    29   14   15 ar
    30   14   32 1
    31   15   16 ar
    32   15   18 1
    33   16   17 ar
    34   16   33 1
    35   17   34 1
    36   18   35 1
    37   19   20 1
    38   19   36 1
    39   19   37 1
    40   20   38 1
    41   20   39 1
    42   20   40 1
    43   21   41 1
