@<TRIPOS>MOLECULE
CHEMBL214291
   44    48     0     0     0
SMALL
USER_CHARGES

@<TRIPOS>ATOM
      1 C1         -0.0184    1.5028    0.0103 C.3       1 <0>        -0.1135
      2 C2          0.0021   -0.0041    0.0020 C.2       1 <0>        -0.1697
      3 C3         -1.1502   -0.7069    0.0036 C.2       1 <0>         0.0031
      4 C4         -2.5311   -0.2288   -0.1159 C.ar      1 <0>        -0.0457
      5 C5         -3.1038    1.0253    0.1753 C.ar      1 <0>        -0.0852
      6 C6         -4.4177    1.2654   -0.0760 C.ar      1 <0>        -0.0513
      7 C7         -5.2221    0.2587   -0.6229 C.ar      1 <0>         0.0266
      8 C8         -4.6719   -1.0121   -0.8834 C.ar      1 <0>         0.0378
      9 C9         -3.3348   -1.2578   -0.6148 C.ar      1 <0>        -0.0583
     10 C10        -2.5163   -2.5294   -0.7115 C.3       1 <0>        -0.0799
     11 C11        -1.2249   -2.2242    0.0670 C.3       1 <0>        -0.0283
     12 C12        -0.0033   -2.7737   -0.6752 C.3       1 <0>        -0.1081
     13 C13         1.2592   -2.2105   -0.0142 C.3       1 <0>        -0.1701
     14 C14         1.2270   -0.7062   -0.0134 C.2       1 <0>         0.3909
     15 O1          2.2712   -0.0861   -0.0218 O.2       1 <0>        -0.4534
     16 C15        -1.3034   -2.7277    1.5097 C.3       1 <0>        -0.0608
     17 C16        -1.3752   -4.2330    1.5132 C.ar      1 <0>        -0.0900
     18 C17        -2.6032   -4.8660    1.4638 C.ar      1 <0>        -0.0889
     19 C18        -2.6703   -6.2464    1.4665 C.ar      1 <0>        -0.1500
     20 C19        -1.5069   -6.9954    1.5187 C.ar      1 <0>         0.0986
     21 C20        -0.2776   -6.3603    1.5680 C.ar      1 <0>        -0.1486
     22 C21        -0.2127   -4.9798    1.5599 C.ar      1 <0>        -0.0854
     23 F1         -1.5713   -8.3448    1.5218 F         1 <0>        -0.1382
     24 N1         -5.7090   -1.7565   -1.3922 N.pl3     1 <0>        -0.4147
     25 N2         -6.7548   -1.0059   -1.4391 N.2       1 <0>        -0.0067
     26 N3         -6.5127    0.1790   -1.0004 N.2       1 <0>        -0.2475
     27 H1         -5.6616   -2.6851   -1.6683 H         1 <0>         0.4534
     28 H2          1.0042    1.8801    0.0026 H         1 <0>         0.0788
     29 H3         -0.5455    1.8639   -0.8728 H         1 <0>         0.0735
     30 H4         -0.5286    1.8543    0.9071 H         1 <0>         0.0740
     31 H5         -2.4914    1.8050    0.6036 H         1 <0>         0.1431
     32 H6         -4.8416    2.2334    0.1467 H         1 <0>         0.1469
     33 H7         -3.0501   -3.3604   -0.2505 H         1 <0>         0.0928
     34 H8         -2.2873   -2.7552   -1.7530 H         1 <0>         0.0949
     35 H9          0.0046   -3.8618   -0.6126 H         1 <0>         0.0881
     36 H10        -0.0394   -2.4640   -1.7196 H         1 <0>         0.0783
     37 H11         1.3199   -2.5730    1.0119 H         1 <0>         0.1033
     38 H12         2.1357   -2.5490   -0.5668 H         1 <0>         0.1004
     39 H13        -0.4170   -2.4050    2.0559 H         1 <0>         0.0858
     40 H14        -2.1937   -2.3204    1.9887 H         1 <0>         0.0850
     41 H15        -3.5105   -4.2816    1.4235 H         1 <0>         0.1307
     42 H16        -3.6298   -6.7407    1.4283 H         1 <0>         0.1360
     43 H17         0.6305   -6.9435    1.6091 H         1 <0>         0.1376
     44 H18         0.7462   -4.4843    1.5939 H         1 <0>         0.1342
@<TRIPOS>BOND
     1    1    2 1
     2    1   28 1
     3    1   29 1
     4    1   30 1
     5    2   14 1
     6    2    3 2
     7    3   11 1
     8    3    4 1
     9    4    9 ar
    10    4    5 ar
    11    5    6 ar
    12    5   31 1
    13    6    7 ar
    14    6   32 1
    15    7    8 ar
    16    7   26 1
    17    8    9 ar
    18    8   24 1
    19    9   10 1
    20   10   11 1
    21   10   33 1
    22   10   34 1
    23   11   12 1
    24   11   16 1
    25   12   13 1
    26   12   35 1
    27   12   36 1
    28   13   14 1
    29   13   37 1
    30   13   38 1
    31   14   15 2
    32   16   17 1
    33   16   39 1
    34   16   40 1
    35   17   22 ar
    36   17   18 ar
    37   18   19 ar
    38   18   41 1
    39   19   20 ar
    40   19   42 1
    41   20   21 ar
    42   20   23 1
    43   21   22 ar
    44   21   43 1
    45   22   44 1
    46   24   27 1
    47   24   25 1
    48   25   26 2
