@<TRIPOS>MOLECULE
CHEMBL569766
   44    48     0     0     0
SMALL
USER_CHARGES

@<TRIPOS>ATOM
      1 C1         -0.0184    1.5028    0.0103 C.3       1 <0>        -0.2009
      2 C2          0.0021   -0.0041    0.0020 C.2       1 <0>         0.3978
      3 O1          1.0607   -0.5962   -0.0113 O.2       1 <0>        -0.4703
      4 C3         -1.2587   -0.7551    0.0100 C.ar      1 <0>        -0.2339
      5 C4         -2.4831   -0.0735    0.0196 C.ar      1 <0>        -0.0237
      6 C5         -3.6488   -0.7812    0.0332 C.ar      1 <0>        -0.2072
      7 C6         -3.6272   -2.1781    0.0357 C.ar      1 <0>         0.2586
      8 C7         -2.4190   -2.8600    0.0146 C.ar      1 <0>        -0.1585
      9 C8         -1.2427   -2.1534    0.0024 C.ar      1 <0>        -0.0032
     10 C9         -2.3452   -4.3610   -0.0206 C.3       1 <0>        -0.0065
     11 H1         -1.9612   -4.7435    0.9251 H         1 <0>         0.0898
     12 C10        -1.4242   -4.7545   -1.1646 C.2       1 <0>        -0.1564
     13 C11        -2.1182   -5.1421   -2.2028 C.2       1 <0>        -0.1598
     14 C12        -3.6036   -5.0802   -1.9143 C.3       1 <0>        -0.0915
     15 C13        -3.6814   -5.0183   -0.3559 C.3       1 <0>        -0.0962
     16 H2         -3.6866   -6.0338    0.0403 H         1 <0>         0.0990
     17 C14        -4.9053   -4.3097    0.1428 C.3       1 <0>         0.2102
     18 H3         -5.0838   -4.6141    1.1741 H         1 <0>         0.0924
     19 N1         -4.8278   -2.8641    0.0657 N.pl3     1 <0>        -0.7245
     20 C15        -6.0820   -4.7457   -0.6916 C.ar      1 <0>        -0.0611
     21 C16        -6.4717   -3.9908   -1.7826 C.ar      1 <0>        -0.0856
     22 C17        -7.5532   -4.3892   -2.5508 C.ar      1 <0>         0.0551
     23 C18        -8.2464   -5.5519   -2.2218 C.ar      1 <0>         0.0421
     24 C19        -7.8510   -6.3037   -1.1279 C.ar      1 <0>        -0.0694
     25 C20        -6.7664   -5.9030   -0.3681 C.ar      1 <0>        -0.0782
     26 Br1        -6.2238   -6.9354    1.1205 Br        1 <0>        -0.0198
     27 O2         -9.2585   -5.7255   -3.1211 O.3       1 <0>        -0.3016
     28 C21        -9.4314   -4.4454   -3.7572 C.3       1 <0>         0.2119
     29 O3         -8.1313   -3.8348   -3.6562 O.3       1 <0>        -0.3020
     30 H4          1.0042    1.8801    0.0026 H         1 <0>         0.0824
     31 H5         -0.5455    1.8639   -0.8728 H         1 <0>         0.0913
     32 H6         -0.5286    1.8543    0.9071 H         1 <0>         0.0917
     33 H7         -2.5034    1.0063    0.0165 H         1 <0>         0.1315
     34 H8         -4.5940   -0.2587    0.0425 H         1 <0>         0.1275
     35 H9         -0.2997   -2.6799   -0.0090 H         1 <0>         0.1311
     36 H10        -0.3455   -4.7188   -1.1252 H         1 <0>         0.1302
     37 H11        -1.6895   -5.4633   -3.1405 H         1 <0>         0.1271
     38 H12        -4.0422   -4.1850   -2.3552 H         1 <0>         0.0779
     39 H13        -4.1032   -5.9751   -2.2854 H         1 <0>         0.0722
     40 H14        -5.6531   -2.3545    0.0586 H         1 <0>         0.4050
     41 H15        -5.9328   -3.0898   -2.0357 H         1 <0>         0.1473
     42 H16        -8.3868   -7.2054   -0.8704 H         1 <0>         0.1496
     43 H17        -9.7149   -4.5721   -4.8020 H         1 <0>         0.1380
     44 H18       -10.1757   -3.8515   -3.2267 H         1 <0>         0.0905
@<TRIPOS>BOND
     1    1    2 1
     2    1   30 1
     3    1   31 1
     4    1   32 1
     5    2    3 2
     6    2    4 1
     7    4    9 ar
     8    4    5 ar
     9    5    6 ar
    10    5   33 1
    11    6    7 ar
    12    6   34 1
    13    7   19 1
    14    7    8 ar
    15    8    9 ar
    16    8   10 1
    17    9   35 1
    18   10   11 1
    19   10   15 1
    20   10   12 1
    21   12   13 2
    22   12   36 1
    23   13   14 1
    24   13   37 1
    25   14   15 1
    26   14   38 1
    27   14   39 1
    28   15   16 1
    29   15   17 1
    30   17   18 1
    31   17   19 1
    32   17   20 1
    33   19   40 1
    34   20   25 ar
    35   20   21 ar
    36   21   22 ar
    37   21   41 1
    38   22   29 1
    39   22   23 ar
    40   23   24 ar
    41   23   27 1
    42   24   25 ar
    43   24   42 1
    44   25   26 1
    45   27   28 1
    46   28   29 1
    47   28   43 1
    48   28   44 1
