@<TRIPOS>MOLECULE
CHEMBL489585
   61    64     0     0     0
SMALL
USER_CHARGES

@<TRIPOS>ATOM
      1 C1         -6.6984    0.9500    0.3069 C.3       1 <0>        -0.1530
      2 C2         -6.4312   -0.5469    0.4759 C.3       1 <0>        -0.1249
      3 C3         -4.9595   -0.8393    0.1765 C.3       1 <0>        -0.1184
      4 C4         -4.6923   -2.3362    0.3455 C.3       1 <0>        -0.1128
      5 C5         -3.2206   -2.6286    0.0461 C.3       1 <0>        -0.0859
      6 C6         -2.9738   -4.1122    0.1410 C.ar      1 <0>        -0.0478
      7 C7         -2.9915   -4.8675   -0.9881 C.ar      1 <0>        -0.1083
      8 C8         -2.7626   -6.2538   -0.9140 C.ar      1 <0>        -0.0200
      9 C9         -2.7761   -7.0519   -2.0693 C.ar      1 <0>        -0.1404
     10 C10        -2.5501   -8.3954   -1.9659 C.ar      1 <0>         0.1186
     11 C11        -2.3054   -8.9881   -0.7234 C.ar      1 <0>        -0.1411
     12 C12        -2.2857   -8.2425    0.4141 C.ar      1 <0>        -0.0721
     13 C13        -2.5137   -6.8576    0.3443 C.ar      1 <0>        -0.0720
     14 C14        -2.4995   -6.0592    1.5043 C.ar      1 <0>         0.1214
     15 C15        -2.7234   -4.6929    1.3932 C.ar      1 <0>        -0.0490
     16 C16        -2.7041   -3.8430    2.6078 C.ar      1 <0>        -0.0404
     17 C17        -1.6855   -2.9093    2.7924 C.ar      1 <0>        -0.0993
     18 C18        -1.6730   -2.1206    3.9247 C.ar      1 <0>        -0.1171
     19 C19        -2.6684   -2.2554    4.8758 C.ar      1 <0>        -0.1144
     20 C20        -3.6817   -3.1802    4.6981 C.ar      1 <0>        -0.1190
     21 C21        -3.7078   -3.9704    3.5670 C.ar      1 <0>        -0.0930
     22 O1         -2.2636   -6.6183    2.7179 O.3       1 <0>        -0.2514
     23 C22        -0.9780   -6.6945    3.1450 C.ar      1 <0>         0.1074
     24 C23         0.0481   -6.2015    2.3459 C.ar      1 <0>        -0.1858
     25 C24         1.3537   -6.2767    2.7742 C.ar      1 <0>        -0.0789
     26 C25         1.6483   -6.8506    4.0174 C.ar      1 <0>        -0.0614
     27 C26         0.6111   -7.3451    4.8184 C.ar      1 <0>        -0.0835
     28 C27        -0.6914   -7.2603    4.3830 C.ar      1 <0>        -0.1380
     29 C28         3.0397   -6.9339    4.4793 C.2       1 <0>        -0.1143
     30 C29         3.3217   -7.4889    5.6810 C.2       1 <0>        -0.1664
     31 C30         4.6611   -7.5691    6.1256 C.2       1 <0>         0.4998
     32 O2          5.5668   -7.1362    5.4230 O.co2     1 <0>        -0.6958
     33 O3          4.9164   -8.0716    7.2135 O.co2     1 <0>        -0.6994
     34 O4         -2.5636   -9.1656   -3.0852 O.3       1 <0>        -0.5004
     35 H1         -7.7469    1.1583    0.5202 H         1 <0>         0.0521
     36 H2         -6.0687    1.5117    0.9969 H         1 <0>         0.0535
     37 H3         -6.4701    1.2465   -0.7169 H         1 <0>         0.0526
     38 H4         -6.6595   -0.8435    1.4997 H         1 <0>         0.0608
     39 H5         -7.0609   -1.1086   -0.2141 H         1 <0>         0.0596
     40 H6         -4.7312   -0.5428   -0.8473 H         1 <0>         0.0606
     41 H7         -4.3298   -0.2776    0.8665 H         1 <0>         0.0622
     42 H8         -4.9206   -2.6328    1.3693 H         1 <0>         0.0662
     43 H9         -5.3220   -2.8979   -0.3445 H         1 <0>         0.0618
     44 H10        -2.9789   -2.2836   -0.9592 H         1 <0>         0.0739
     45 H11        -2.5924   -2.1088    0.7695 H         1 <0>         0.0812
     46 H12        -3.1819   -4.4031   -1.9444 H         1 <0>         0.1330
     47 H13        -2.9646   -6.6061   -3.0348 H         1 <0>         0.1355
     48 H14        -2.1301  -10.0522   -0.6661 H         1 <0>         0.1323
     49 H15        -2.0955   -8.7131    1.3674 H         1 <0>         0.1354
     50 H16        -0.9074   -2.8037    2.0509 H         1 <0>         0.1204
     51 H17        -0.8843   -1.3969    4.0688 H         1 <0>         0.1232
     52 H18        -2.6542   -1.6365    5.7608 H         1 <0>         0.1207
     53 H19        -4.4561   -3.2813    5.4441 H         1 <0>         0.1216
     54 H20        -4.5018   -4.6889    3.4271 H         1 <0>         0.1197
     55 H21        -0.1801   -5.7591    1.3874 H         1 <0>         0.1206
     56 H22         2.1498   -5.8942    2.1526 H         1 <0>         0.1263
     57 H23         0.8330   -7.7889    5.7777 H         1 <0>         0.1352
     58 H24        -1.4923   -7.6373    5.0018 H         1 <0>         0.1285
     59 H25         3.8380   -6.5523    3.8600 H         1 <0>         0.1274
     60 H26         2.5234   -7.8705    6.3003 H         1 <0>         0.0997
     61 H27        -1.7013   -9.2509   -3.5144 H         1 <0>         0.3927
@<TRIPOS>BOND
     1    1    2 1
     2    1   35 1
     3    1   36 1
     4    1   37 1
     5    2    3 1
     6    2   38 1
     7    2   39 1
     8    3    4 1
     9    3   40 1
    10    3   41 1
    11    4    5 1
    12    4   42 1
    13    4   43 1
    14    5    6 1
    15    5   44 1
    16    5   45 1
    17    6   15 ar
    18    6    7 ar
    19    7    8 ar
    20    7   46 1
    21    8   13 ar
    22    8    9 ar
    23    9   10 ar
    24    9   47 1
    25   10   11 ar
    26   10   34 1
    27   11   12 ar
    28   11   48 1
    29   12   13 ar
    30   12   49 1
    31   13   14 ar
    32   14   15 ar
    33   14   22 1
    34   15   16 1
    35   16   21 ar
    36   16   17 ar
    37   17   18 ar
    38   17   50 1
    39   18   19 ar
    40   18   51 1
    41   19   20 ar
    42   19   52 1
    43   20   21 ar
    44   20   53 1
    45   21   54 1
    46   22   23 1
    47   23   28 ar
    48   23   24 ar
    49   24   25 ar
    50   24   55 1
    51   25   26 ar
    52   25   56 1
    53   26   27 ar
    54   26   29 1
    55   27   28 ar
    56   27   57 1
    57   28   58 1
    58   29   30 2
    59   29   59 1
    60   30   31 1
    61   30   60 1
    62   31   32 2
    63   31   33 1
    64   34   61 1
