@<TRIPOS>MOLECULE
CHEMBL380359
   33    35     0     0     0
SMALL
USER_CHARGES

@<TRIPOS>ATOM
      1 C1          0.5348    0.4461   -1.1987 C.ar      1 <0>        -0.0774
      2 C2          1.7208    1.1528   -1.2056 C.ar      1 <0>        -0.1352
      3 C3          2.3806    1.4129   -0.0131 C.ar      1 <0>         0.1277
      4 C4          1.8488    0.9634    1.1869 C.ar      1 <0>        -0.1351
      5 C5          0.6627    0.2569    1.1952 C.ar      1 <0>        -0.0772
      6 C6          0.0021   -0.0041    0.0020 C.ar      1 <0>         0.0874
      7 N1         -1.2021   -0.7217    0.0097 N.am      1 <0>        -0.5046
      8 C7         -2.3828   -0.0554    0.1219 C.2       1 <0>         0.3839
      9 N2         -3.5378   -0.6486    0.1360 N.2       1 <0>        -0.5141
     10 C8         -3.6450   -1.9975    0.0380 C.ar      1 <0>         0.1698
     11 C9         -4.8845   -2.6358    0.0519 C.ar      1 <0>        -0.1410
     12 C10        -4.9425   -4.0139   -0.0518 C.ar      1 <0>         0.1607
     13 C11        -3.7755   -4.7684   -0.1700 C.ar      1 <0>        -0.1426
     14 C12        -2.5524   -4.1612   -0.1856 C.ar      1 <0>         0.0051
     15 C13        -2.4685   -2.7728   -0.0824 C.ar      1 <0>        -0.2041
     16 C14        -1.1793   -2.0703   -0.1003 C.2       1 <0>         0.5494
     17 O1         -0.1296   -2.6782   -0.2059 O.2       1 <0>        -0.4963
     18 C15        -1.2987   -4.9877   -0.3137 C.3       1 <0>         0.1183
     19 O2         -1.6470   -6.3707   -0.4030 O.3       1 <0>        -0.5742
     20 O3         -6.1477   -4.6385   -0.0381 O.3       1 <0>        -0.4926
     21 O4          3.5488    2.1081   -0.0206 O.3       1 <0>        -0.4960
     22 H1          0.0191    0.2472   -2.1266 H         1 <0>         0.1335
     23 H2          2.1352    1.5030   -2.1394 H         1 <0>         0.1406
     24 H3          2.3631    1.1659    2.1148 H         1 <0>         0.1406
     25 H4          0.2490   -0.0932    2.1293 H         1 <0>         0.1337
     26 H5         -2.3582    1.0212    0.2037 H         1 <0>         0.2045
     27 H6         -5.7927   -2.0586    0.1435 H         1 <0>         0.1490
     28 H7         -3.8398   -5.8436   -0.2496 H         1 <0>         0.1515
     29 H8         -0.7579   -4.6905   -1.2122 H         1 <0>         0.0744
     30 H9         -0.6672   -4.8277    0.5601 H         1 <0>         0.0743
     31 H10        -0.8873   -6.9630   -0.4878 H         1 <0>         0.3884
     32 H11        -6.5422   -4.7513   -0.9137 H         1 <0>         0.4003
     33 H12         3.4375    3.0652    0.0609 H         1 <0>         0.3972
@<TRIPOS>BOND
     1    1    6 ar
     2    1    2 ar
     3    1   22 1
     4    2    3 ar
     5    2   23 1
     6    3    4 ar
     7    3   21 1
     8    4    5 ar
     9    4   24 1
    10    5    6 ar
    11    5   25 1
    12    6    7 1
    13    7   16 am
    14    7    8 1
    15    8    9 2
    16    8   26 1
    17    9   10 1
    18   10   15 ar
    19   10   11 ar
    20   11   12 ar
    21   11   27 1
    22   12   13 ar
    23   12   20 1
    24   13   14 ar
    25   13   28 1
    26   14   15 ar
    27   14   18 1
    28   15   16 1
    29   16   17 2
    30   18   19 1
    31   18   29 1
    32   18   30 1
    33   19   31 1
    34   20   32 1
    35   21   33 1
