@<TRIPOS>MOLECULE
CHEMBL209978
   37    40     0     0     0
SMALL
USER_CHARGES

@<TRIPOS>ATOM
      1 C1         -0.0157    1.3798    0.0106 C.ar      1 <0>        -0.1160
      2 C2          0.9229    1.6186    0.9969 C.ar      1 <0>        -0.1133
      3 C3          2.1289    0.9431    0.9814 C.ar      1 <0>        -0.1112
      4 C4          2.3960    0.0285   -0.0201 C.ar      1 <0>        -0.0669
      5 C5          1.4570   -0.2109   -1.0059 C.ar      1 <0>        -0.1087
      6 C6          0.2516    0.4656   -0.9912 C.ar      1 <0>        -0.1148
      7 C7          3.7112   -0.7071   -0.0376 C.3       1 <0>         0.0033
      8 C8          4.4961   -0.4200   -1.3199 C.3       1 <0>        -0.1049
      9 C9          4.8553    1.0697   -1.3433 C.3       1 <0>        -0.1582
     10 C10         5.6249    1.4465   -0.1067 C.2       1 <0>         0.3964
     11 O1          6.3984    2.3821   -0.1473 O.2       1 <0>        -0.4410
     12 C11         5.4635    0.7324    1.0997 C.2       1 <0>        -0.2034
     13 C12         4.5956   -0.3038    1.1359 C.2       1 <0>         0.0649
     14 C13         4.3289   -1.2609    2.1971 C.ar      1 <0>        -0.1182
     15 C14         4.5631   -1.1560    3.5789 C.ar      1 <0>        -0.0437
     16 C15         4.2414   -2.2524    4.3562 C.ar      1 <0>        -0.1593
     17 C16         3.7113   -3.4097    3.8034 C.ar      1 <0>         0.1409
     18 C17         3.4594   -3.5214    2.4339 C.ar      1 <0>        -0.1377
     19 C18         3.7589   -2.4302    1.6468 C.ar      1 <0>        -0.0401
     20 C19         3.5157   -2.2204    0.1780 C.3       1 <0>        -0.0763
     21 O2          3.4307   -4.4608    4.6147 O.3       1 <0>        -0.4981
     22 Br1         6.4456    1.2170    2.6413 Br        1 <0>        -0.0210
     23 H1         -0.9597    1.9042    0.0253 H         1 <0>         0.1240
     24 H2          0.7143    2.3331    1.7794 H         1 <0>         0.1241
     25 H3          2.8626    1.1302    1.7516 H         1 <0>         0.1190
     26 H4          1.6658   -0.9252   -1.7886 H         1 <0>         0.1262
     27 H5         -0.4819    0.2788   -1.7616 H         1 <0>         0.1259
     28 H6          5.4075   -1.0177   -1.3341 H         1 <0>         0.0831
     29 H7          3.8832   -0.6635   -2.1878 H         1 <0>         0.0922
     30 H8          5.4636    1.2791   -2.2232 H         1 <0>         0.1055
     31 H9          3.9400    1.6596   -1.3910 H         1 <0>         0.1071
     32 H10         4.9765   -0.2582    4.0141 H         1 <0>         0.1453
     33 H11         4.4073   -2.2075    5.4224 H         1 <0>         0.1349
     34 H12         3.0466   -4.4247    2.0097 H         1 <0>         0.1435
     35 H13         2.4991   -2.5134   -0.0844 H         1 <0>         0.0984
     36 H14         4.2386   -2.7846   -0.4112 H         1 <0>         0.1012
     37 H15         2.5332   -4.4513    4.9746 H         1 <0>         0.3968
@<TRIPOS>BOND
     1    1    6 ar
     2    1    2 ar
     3    1   23 1
     4    2    3 ar
     5    2   24 1
     6    3    4 ar
     7    3   25 1
     8    4    5 ar
     9    4    7 1
    10    5    6 ar
    11    5   26 1
    12    6   27 1
    13    7   13 1
    14    7   20 1
    15    7    8 1
    16    8    9 1
    17    8   28 1
    18    8   29 1
    19    9   10 1
    20    9   30 1
    21    9   31 1
    22   10   11 2
    23   10   12 1
    24   12   13 2
    25   12   22 1
    26   13   14 1
    27   14   19 ar
    28   14   15 ar
    29   15   16 ar
    30   15   32 1
    31   16   17 ar
    32   16   33 1
    33   17   18 ar
    34   17   21 1
    35   18   19 ar
    36   18   34 1
    37   19   20 1
    38   20   35 1
    39   20   36 1
    40   21   37 1
