@<TRIPOS>MOLECULE
CHEMBL31721
   30    32     0     0     0
SMALL
USER_CHARGES

@<TRIPOS>ATOM
      1 C1         -0.0184    1.5028    0.0103 C.3       1 <0>        -0.1255
      2 C2          0.0021   -0.0041    0.0020 C.ar      1 <0>        -0.0430
      3 C3          0.0058   -0.6878   -1.1953 C.ar      1 <0>        -0.1455
      4 C4          0.0251   -2.0760   -1.2040 C.ar      1 <0>         0.1225
      5 C5          0.0407   -2.7814   -0.0078 C.ar      1 <0>        -0.1501
      6 C6          0.0371   -2.1052    1.1933 C.ar      1 <0>        -0.0709
      7 C7          0.0231   -0.7093    1.2063 C.ar      1 <0>        -0.0329
      8 C8          0.0248    0.0200    2.4923 C.2       1 <0>        -0.0820
      9 C9         -0.7733   -0.1755    3.5685 C.2       1 <0>        -0.1257
     10 C10        -0.5960    0.6651    4.7407 C.ar      1 <0>        -0.0973
     11 C11        -1.3105    0.6374    5.9637 C.ar      1 <0>        -0.0566
     12 C12        -1.0108    1.5058    6.9646 C.ar      1 <0>        -0.1452
     13 C13         0.0038    2.4508    6.8279 C.ar      1 <0>         0.1316
     14 C14         0.7254    2.5085    5.6466 C.ar      1 <0>        -0.1052
     15 C15         0.4282    1.6314    4.6261 C.ar      1 <0>        -0.1031
     16 S1          1.0833    1.3616    2.9994 S.3       1 <0>         0.0536
     17 O1          0.2830    3.3089    7.8446 O.3       1 <0>        -0.4924
     18 O2          0.0283   -2.7463   -2.3860 O.3       1 <0>        -0.4981
     19 H1          1.0042    1.8801    0.0026 H         1 <0>         0.0783
     20 H2         -0.5455    1.8639   -0.8728 H         1 <0>         0.0740
     21 H3         -0.5286    1.8543    0.9071 H         1 <0>         0.0747
     22 H4         -0.0067   -0.1428   -2.1276 H         1 <0>         0.1350
     23 H5          0.0554   -3.8613   -0.0187 H         1 <0>         0.1351
     24 H6          0.0489   -2.6545    2.1231 H         1 <0>         0.1327
     25 H7         -1.5311   -0.9449    3.5559 H         1 <0>         0.1404
     26 H8         -2.1034   -0.0827    6.1019 H         1 <0>         0.1319
     27 H9         -1.5718    1.4629    7.8865 H         1 <0>         0.1354
     28 H10         1.5145    3.2360    5.5261 H         1 <0>         0.1381
     29 H11         0.9461    2.9793    8.4665 H         1 <0>         0.3957
     30 H12         0.9125   -2.9279   -2.7327 H         1 <0>         0.3944
@<TRIPOS>BOND
     1    1    2 1
     2    1   19 1
     3    1   20 1
     4    1   21 1
     5    2    7 ar
     6    2    3 ar
     7    3    4 ar
     8    3   22 1
     9    4    5 ar
    10    4   18 1
    11    5    6 ar
    12    5   23 1
    13    6    7 ar
    14    6   24 1
    15    7    8 1
    16    8   16 1
    17    8    9 2
    18    9   10 1
    19    9   25 1
    20   10   15 ar
    21   10   11 ar
    22   11   12 ar
    23   11   26 1
    24   12   13 ar
    25   12   27 1
    26   13   14 ar
    27   13   17 1
    28   14   15 ar
    29   14   28 1
    30   15   16 1
    31   17   29 1
    32   18   30 1
