@<TRIPOS>MOLECULE
CHEMBL195466
   71    76     0     0     0
SMALL
USER_CHARGES

@<TRIPOS>ATOM
      1 C1          7.0856    2.9096    2.2778 C.ar      1 <0>        -0.0533
      2 C2          5.9422    3.1487    1.5400 C.ar      1 <0>        -0.2073
      3 C3          5.2259    4.3241    1.7288 C.ar      1 <0>         0.2404
      4 C4          5.6605    5.2576    2.6601 C.ar      1 <0>        -0.2252
      5 C5          6.8075    5.0136    3.3983 C.ar      1 <0>         0.1546
      6 C6          7.5194    3.8376    3.2050 C.ar      1 <0>        -0.2013
      7 O1          7.2358    5.9254    4.3104 O.3       1 <0>        -0.5017
      8 N1          4.0706    4.5665    0.9824 N.pl3     1 <0>        -0.6179
      9 C7          3.2308    5.7494    1.2339 C.3       1 <0>         0.1130
     10 C8          1.8669    5.2620    1.7204 C.3       1 <0>        -0.1028
     11 C9          1.3455    4.1589    0.8374 C.ar      1 <0>        -0.0469
     12 C10        -0.0194    3.9032    0.8662 C.ar      1 <0>        -0.1476
     13 C11        -0.5630    2.8967    0.0871 C.ar      1 <0>         0.1149
     14 C12         0.2629    2.1365   -0.7286 C.ar      1 <0>        -0.1454
     15 C13         1.6168    2.3946   -0.7588 C.ar      1 <0>        -0.0884
     16 C14         2.1604    3.4084    0.0193 C.ar      1 <0>        -0.1004
     17 C15         3.6486    3.6561   -0.0873 C.3       1 <0>         0.2404
     18 C16         3.9642    4.2739   -1.4251 C.ar      1 <0>        -0.1255
     19 C17         4.9012    3.6841   -2.2536 C.ar      1 <0>        -0.0558
     20 C18         5.1928    4.2477   -3.4802 C.ar      1 <0>        -0.1838
     21 C19         4.5436    5.4084   -3.8815 C.ar      1 <0>         0.2021
     22 C20         3.6029    5.9983   -3.0468 C.ar      1 <0>        -0.1850
     23 C21         3.3120    5.4263   -1.8239 C.ar      1 <0>        -0.0529
     24 N2          4.8364    5.9813   -5.1212 N.pl3     1 <0>        -0.6436
     25 C22         4.2601    7.2775   -5.5105 C.3       1 <0>         0.1013
     26 C23         5.3933    8.1860   -5.9988 C.3       1 <0>        -0.0235
     27 N3          6.1368    7.5077   -7.0680 N.4       1 <0>        -0.3784
     28 C24         6.7942    6.3072   -6.5361 C.3       1 <0>        -0.0273
     29 C25         5.7348    5.3084   -6.0721 C.3       1 <0>         0.1002
     30 C26         7.1522    8.4200   -7.6107 C.3       1 <0>         0.0193
     31 C27         6.4717    9.6493   -8.2476 C.3       1 <0>        -0.1420
     32 C28         7.3413    9.9635   -9.4903 C.3       1 <0>        -0.1244
     33 C29         7.7120    8.5535  -10.0133 C.3       1 <0>        -0.1303
     34 C30         7.9408    7.7233   -8.7334 C.3       1 <0>        -0.1445
     35 O2         -1.8998    2.6544    0.1205 O.3       1 <0>        -0.4975
     36 H1          7.6388    1.9935    2.1327 H         1 <0>         0.1269
     37 H2          5.6053    2.4217    0.8159 H         1 <0>         0.1213
     38 H3          5.1058    6.1723    2.8087 H         1 <0>         0.1282
     39 H4          8.4134    3.6476    3.7804 H         1 <0>         0.1259
     40 H5          6.8745    5.7939    5.1976 H         1 <0>         0.3948
     41 H6          3.6932    6.3742    1.9980 H         1 <0>         0.0922
     42 H7          3.1116    6.3196    0.3127 H         1 <0>         0.0731
     43 H8          1.9621    4.8899    2.7405 H         1 <0>         0.0862
     44 H9          1.1633    6.0944    1.7075 H         1 <0>         0.0876
     45 H10        -0.6617    4.4943    1.5021 H         1 <0>         0.1300
     46 H11        -0.1528    1.3469   -1.3370 H         1 <0>         0.1313
     47 H12         2.2604    1.8027   -1.3926 H         1 <0>         0.1260
     48 H13         4.1822    2.7105    0.0096 H         1 <0>         0.1050
     49 H14         5.4058    2.7819   -1.9409 H         1 <0>         0.1278
     50 H15         5.9249    3.7867   -4.1267 H         1 <0>         0.1239
     51 H16         3.0967    6.9009   -3.3555 H         1 <0>         0.1224
     52 H17         2.5775    5.8820   -1.1763 H         1 <0>         0.1282
     53 H18         3.5368    7.1307   -6.3127 H         1 <0>         0.0869
     54 H19         3.7699    7.7336   -4.6504 H         1 <0>         0.1259
     55 H20         4.9739    9.1164   -6.3816 H         1 <0>         0.1401
     56 H21         6.0666    8.4045   -5.1701 H         1 <0>         0.1323
     57 H22         7.4071    5.8533   -7.3148 H         1 <0>         0.1419
     58 H23         7.4252    6.5826   -5.6911 H         1 <0>         0.1327
     59 H24         6.2192    4.4632   -5.5831 H         1 <0>         0.1272
     60 H25         5.1630    4.9594   -6.9320 H         1 <0>         0.0868
     61 H26         7.8309    8.7365   -6.8187 H         1 <0>         0.1391
     62 H27         5.4517    9.4084   -8.5468 H         1 <0>         0.0866
     63 H28         6.4785   10.4907   -7.5547 H         1 <0>         0.0978
     64 H29         6.7659   10.5129  -10.2354 H         1 <0>         0.0889
     65 H30         8.2358   10.5175   -9.2058 H         1 <0>         0.0837
     66 H31         6.8922    8.1356  -10.5977 H         1 <0>         0.0776
     67 H32         8.6239    8.5952  -10.6091 H         1 <0>         0.0879
     68 H33         9.0023    7.7024   -8.4866 H         1 <0>         0.1031
     69 H34         7.5700    6.7082   -8.8756 H         1 <0>         0.0848
     70 H35        -2.4075    3.1598   -0.5291 H         1 <0>         0.3929
     71 H36         5.4990    7.2424   -7.8035 H         1 <0>         0.4199
@<TRIPOS>BOND
     1    1    6 ar
     2    1    2 ar
     3    1   36 1
     4    2    3 ar
     5    2   37 1
     6    3    4 ar
     7    3    8 1
     8    4    5 ar
     9    4   38 1
    10    5    6 ar
    11    5    7 1
    12    6   39 1
    13    7   40 1
    14    8   17 1
    15    8    9 1
    16    9   10 1
    17    9   41 1
    18    9   42 1
    19   10   11 1
    20   10   43 1
    21   10   44 1
    22   11   16 ar
    23   11   12 ar
    24   12   13 ar
    25   12   45 1
    26   13   14 ar
    27   13   35 1
    28   14   15 ar
    29   14   46 1
    30   15   16 ar
    31   15   47 1
    32   16   17 1
    33   17   18 1
    34   17   48 1
    35   18   23 ar
    36   18   19 ar
    37   19   20 ar
    38   19   49 1
    39   20   21 ar
    40   20   50 1
    41   21   22 ar
    42   21   24 1
    43   22   23 ar
    44   22   51 1
    45   23   52 1
    46   24   29 1
    47   24   25 1
    48   25   26 1
    49   25   53 1
    50   25   54 1
    51   26   27 1
    52   26   55 1
    53   26   56 1
    54   27   28 1
    55   27   30 1
    56   27   71 1
    57   28   29 1
    58   28   57 1
    59   28   58 1
    60   29   59 1
    61   29   60 1
    62   30   34 1
    63   30   31 1
    64   30   61 1
    65   31   32 1
    66   31   62 1
    67   31   63 1
    68   32   33 1
    69   32   64 1
    70   32   65 1
    71   33   34 1
    72   33   66 1
    73   33   67 1
    74   34   68 1
    75   34   69 1
    76   35   70 1
