@<TRIPOS>MOLECULE
CHEMBL184958
   67    72     0     0     0
SMALL
USER_CHARGES

@<TRIPOS>ATOM
      1 C1         -0.0167    1.3781    0.0096 C.ar      1 <0>        -0.1096
      2 C2          1.1709    2.0855    0.0021 C.ar      1 <0>        -0.1015
      3 C3          2.3773    1.4107   -0.0130 C.ar      1 <0>        -0.1345
      4 C4          2.3960    0.0285   -0.0201 C.ar      1 <0>        -0.1067
      5 C5          1.2085   -0.6789   -0.0117 C.ar      1 <0>        -0.0952
      6 C6          0.0021   -0.0041    0.0020 C.ar      1 <0>        -0.0501
      7 C7         -1.2926   -0.7753    0.0107 C.3       1 <0>         0.0542
      8 C8         -1.3843   -1.5975   -1.2442 C.ar      1 <0>        -0.0802
      9 C9         -1.7738   -0.9400   -2.4081 C.ar      1 <0>        -0.0915
     10 C10        -1.8784   -1.6196   -3.6014 C.ar      1 <0>        -0.1409
     11 C11        -1.5922   -2.9766   -3.6502 C.ar      1 <0>         0.1169
     12 C12        -1.2065   -3.6331   -2.4940 C.ar      1 <0>        -0.1411
     13 C13        -1.1055   -2.9448   -1.2938 C.ar      1 <0>        -0.0520
     14 C14        -0.6918   -3.7260   -0.0714 C.3       1 <0>        -0.0067
     15 C15        -1.0622   -2.9731    1.1623 C.2       1 <0>        -0.1296
     16 C16        -1.3406   -1.6534    1.2500 C.2       1 <0>        -0.0947
     17 C17        -1.6795   -1.1422    2.5723 C.ar      1 <0>        -0.0861
     18 C18        -2.0008    0.2008    2.8950 C.ar      1 <0>        -0.0561
     19 C19        -2.2944    0.4842    4.1993 C.ar      1 <0>        -0.1486
     20 C20        -2.2907   -0.4722    5.2079 C.ar      1 <0>         0.1290
     21 C21        -1.9787   -1.8022    4.9334 C.ar      1 <0>        -0.0972
     22 C22        -1.6812   -2.0968    3.6204 C.ar      1 <0>        -0.1065
     23 S1         -1.2343   -3.6010    2.8135 S.3       1 <0>         0.0662
     24 O1         -2.5953   -0.1046    6.4808 O.3       1 <0>        -0.4968
     25 O2         -1.6902   -3.6556   -4.8233 O.3       1 <0>        -0.4960
     26 C23         3.6720    2.1819   -0.0222 C.3       1 <0>         0.1609
     27 C24         4.2524    2.2211    1.3929 C.3       1 <0>        -0.1800
     28 C25         5.4994    3.1074    1.4083 C.3       1 <0>        -0.0072
     29 N1          6.0567    3.1450    2.7670 N.4       1 <0>        -0.3828
     30 C26         5.0979    3.7934    3.6696 C.3       1 <0>        -0.0127
     31 C27         5.6382    3.7629    5.1010 C.3       1 <0>        -0.1460
     32 C28         6.9748    4.5085    5.1523 C.3       1 <0>        -0.1394
     33 C29         7.9432    3.8697    4.1526 C.3       1 <0>        -0.1464
     34 C30         7.3176    3.8963    2.7565 C.3       1 <0>        -0.0066
     35 O3          4.6007    1.5430   -0.9005 O.3       1 <0>        -0.5497
     36 H1         -0.9591    1.9053    0.0259 H         1 <0>         0.1278
     37 H2          1.1563    3.1654    0.0076 H         1 <0>         0.1253
     38 H3          3.3385   -0.4987   -0.0326 H         1 <0>         0.1186
     39 H4          1.2231   -1.7588   -0.0179 H         1 <0>         0.1236
     40 H5         -2.1260   -0.0732    0.0381 H         1 <0>         0.0998
     41 H6         -1.9971    0.1161   -2.3746 H         1 <0>         0.1268
     42 H7         -2.1827   -1.0979   -4.4967 H         1 <0>         0.1330
     43 H8         -0.9830   -4.6893   -2.5265 H         1 <0>         0.1339
     44 H9         -1.1965   -4.6920   -0.0712 H         1 <0>         0.1020
     45 H10         0.3868   -3.8825   -0.0897 H         1 <0>         0.1023
     46 H11        -2.0126    0.9712    2.1382 H         1 <0>         0.1345
     47 H12        -2.5416    1.5028    4.4595 H         1 <0>         0.1297
     48 H13        -1.9702   -2.5581    5.7047 H         1 <0>         0.1479
     49 H14        -3.5367   -0.1659    6.6933 H         1 <0>         0.3979
     50 H15        -0.8731   -3.6674   -5.3404 H         1 <0>         0.3944
     51 H16         3.4865    3.1991   -0.3672 H         1 <0>         0.1165
     52 H17         3.5094    2.6273    2.0792 H         1 <0>         0.0993
     53 H18         4.5204    1.2113    1.7037 H         1 <0>         0.0915
     54 H19         6.2424    2.7011    0.7220 H         1 <0>         0.1376
     55 H20         5.2314    4.1171    1.0975 H         1 <0>         0.1306
     56 H21         4.9501    4.8279    3.3596 H         1 <0>         0.1287
     57 H22         4.1462    3.2635    3.6296 H         1 <0>         0.1299
     58 H23         4.9258    4.2464    5.7693 H         1 <0>         0.1118
     59 H24         5.7862    2.7287    5.4122 H         1 <0>         0.0870
     60 H25         6.8186    5.5551    4.8906 H         1 <0>         0.0818
     61 H26         7.3914    4.4412    6.1573 H         1 <0>         0.0942
     62 H27         8.8784    4.4296    4.1432 H         1 <0>         0.1124
     63 H28         8.1390    2.8378    4.4441 H         1 <0>         0.0871
     64 H29         8.0045    3.4424    2.0422 H         1 <0>         0.1303
     65 H30         7.1224    4.9286    2.4659 H         1 <0>         0.1283
     66 H31         4.8128    0.6324   -0.6538 H         1 <0>         0.3796
     67 H32         6.2303    2.2030    3.0844 H         1 <0>         0.4213
@<TRIPOS>BOND
     1    1    6 ar
     2    1    2 ar
     3    1   36 1
     4    2    3 ar
     5    2   37 1
     6    3    4 ar
     7    3   26 1
     8    4    5 ar
     9    4   38 1
    10    5    6 ar
    11    5   39 1
    12    6    7 1
    13    7   16 1
    14    7    8 1
    15    7   40 1
    16    8   13 ar
    17    8    9 ar
    18    9   10 ar
    19    9   41 1
    20   10   11 ar
    21   10   42 1
    22   11   12 ar
    23   11   25 1
    24   12   13 ar
    25   12   43 1
    26   13   14 1
    27   14   15 1
    28   14   44 1
    29   14   45 1
    30   15   23 1
    31   15   16 2
    32   16   17 1
    33   17   22 ar
    34   17   18 ar
    35   18   19 ar
    36   18   46 1
    37   19   20 ar
    38   19   47 1
    39   20   21 ar
    40   20   24 1
    41   21   22 ar
    42   21   48 1
    43   22   23 1
    44   24   49 1
    45   25   50 1
    46   26   27 1
    47   26   35 1
    48   26   51 1
    49   27   28 1
    50   27   52 1
    51   27   53 1
    52   28   29 1
    53   28   54 1
    54   28   55 1
    55   29   34 1
    56   29   30 1
    57   29   67 1
    58   30   31 1
    59   30   56 1
    60   30   57 1
    61   31   32 1
    62   31   58 1
    63   31   59 1
    64   32   33 1
    65   32   60 1
    66   32   61 1
    67   33   34 1
    68   33   62 1
    69   33   63 1
    70   34   64 1
    71   34   65 1
    72   35   66 1
