@<TRIPOS>MOLECULE
CHEMBL432371
   69    73     0     0     0
SMALL
USER_CHARGES

@<TRIPOS>ATOM
      1 C1         -0.6280    3.2018   -1.2093 C.3       1 <0>        -0.1447
      2 C2         -0.8426    1.7971   -0.6420 C.3       1 <0>        -0.0574
      3 C3          0.0510    0.8218   -1.3640 C.2       1 <0>        -0.1335
      4 C4         -0.2999    0.0239   -2.4783 C.2       1 <0>        -0.1257
      5 C5          0.8264   -0.7110   -2.8039 C.2       1 <0>         0.0520
      6 O1          1.8045   -0.3794   -1.9384 O.3       1 <0>        -0.1513
      7 C6          1.3493    0.5455   -1.0723 C.2       1 <0>         0.0378
      8 C7          2.1327    1.1577    0.0199 C.ar      1 <0>        -0.0343
      9 C8          1.6056    1.2168    1.3119 C.ar      1 <0>        -0.0748
     10 C9          2.3403    1.7886    2.3284 C.ar      1 <0>        -0.1432
     11 C10         3.6029    2.3055    2.0693 C.ar      1 <0>         0.1225
     12 C11         4.1308    2.2488    0.7861 C.ar      1 <0>        -0.1434
     13 C12         3.4051    1.6740   -0.2351 C.ar      1 <0>        -0.0766
     14 O2          4.3236    2.8687    3.0741 O.3       1 <0>        -0.4978
     15 C13         0.9368   -1.6861   -3.9042 C.ar      1 <0>        -0.0254
     16 C14         2.0439   -1.6602   -4.7570 C.ar      1 <0>        -0.0933
     17 C15         2.1402   -2.5754   -5.7841 C.ar      1 <0>        -0.1175
     18 C16         1.1439   -3.5175   -5.9718 C.ar      1 <0>        -0.1049
     19 C17         0.0448   -3.5492   -5.1314 C.ar      1 <0>        -0.1196
     20 C18        -0.0623   -2.6444   -4.0962 C.ar      1 <0>        -0.0857
     21 C19        -1.6147   -0.0171   -3.1618 C.ar      1 <0>        -0.0226
     22 C20        -2.7349   -0.5092   -2.4929 C.ar      1 <0>        -0.0659
     23 C21        -3.9566   -0.5460   -3.1317 C.ar      1 <0>        -0.1376
     24 C22        -4.0717   -0.0943   -4.4394 C.ar      1 <0>         0.1124
     25 C23        -2.9585    0.3963   -5.1082 C.ar      1 <0>        -0.1976
     26 C24        -1.7351    0.4416   -4.4731 C.ar      1 <0>        -0.0591
     27 O3         -5.2769   -0.1327   -5.0663 O.3       1 <0>        -0.3282
     28 C25        -5.3241    0.3477   -6.4113 C.3       1 <0>         0.0256
     29 C26        -6.7524    0.2262   -6.9463 C.3       1 <0>        -0.0010
     30 N1         -7.6421    1.1001   -6.1700 N.4       1 <0>        -0.3840
     31 C27        -9.0322    0.8706   -6.5818 C.3       1 <0>        -0.0070
     32 C28        -9.9700    1.7190   -5.7203 C.3       1 <0>        -0.1467
     33 C29        -9.6203    3.1991   -5.9001 C.3       1 <0>        -0.1390
     34 C30        -8.1477    3.4131   -5.5386 C.3       1 <0>        -0.1453
     35 C31        -7.2773    2.5020   -6.4069 C.3       1 <0>        -0.0132
     36 H1          0.4134    3.4935   -1.0729 H         1 <0>         0.0570
     37 H2         -0.8700    3.2053   -2.2721 H         1 <0>         0.0521
     38 H3         -1.2743    3.9072   -0.6871 H         1 <0>         0.0592
     39 H4         -0.6006    1.7936    0.4208 H         1 <0>         0.0767
     40 H5         -1.8840    1.5054   -0.7785 H         1 <0>         0.0719
     41 H6          0.6236    0.8154    1.5142 H         1 <0>         0.1333
     42 H7          1.9332    1.8350    3.3277 H         1 <0>         0.1373
     43 H8          5.1130    2.6523    0.5889 H         1 <0>         0.1362
     44 H9          3.8183    1.6263   -1.2318 H         1 <0>         0.1309
     45 H10         4.8915    2.2457    3.5478 H         1 <0>         0.3967
     46 H11         2.8218   -0.9252   -4.6122 H         1 <0>         0.1273
     47 H12         2.9950   -2.5567   -6.4439 H         1 <0>         0.1301
     48 H13         1.2244   -4.2313   -6.7783 H         1 <0>         0.1277
     49 H14        -0.7289   -4.2871   -5.2842 H         1 <0>         0.1279
     50 H15        -0.9184   -2.6732   -3.4384 H         1 <0>         0.1244
     51 H16        -2.6458   -0.8614   -1.4759 H         1 <0>         0.1359
     52 H17        -4.8246   -0.9270   -2.6142 H         1 <0>         0.1344
     53 H18        -3.0515    0.7469   -6.1254 H         1 <0>         0.1276
     54 H19        -0.8705    0.8278   -4.9923 H         1 <0>         0.1283
     55 H20        -5.0149    1.3927   -6.4349 H         1 <0>         0.0860
     56 H21        -4.6519   -0.2443   -7.0323 H         1 <0>         0.1091
     57 H22        -6.7743    0.5244   -7.9945 H         1 <0>         0.1486
     58 H23        -7.0878   -0.8069   -6.8554 H         1 <0>         0.1425
     59 H24        -9.1509    1.1484   -7.6291 H         1 <0>         0.1290
     60 H25        -9.2785   -0.1837   -6.4563 H         1 <0>         0.1310
     61 H26       -11.0014    1.5486   -6.0288 H         1 <0>         0.1130
     62 H27        -9.8522    1.4419   -4.6727 H         1 <0>         0.0880
     63 H28        -9.7869    3.4895   -6.9374 H         1 <0>         0.0820
     64 H29       -10.2479    3.8040   -5.2457 H         1 <0>         0.0947
     65 H30        -7.8765    4.4536   -5.7173 H         1 <0>         0.1122
     66 H31        -7.9921    3.1711   -4.4873 H         1 <0>         0.0880
     67 H32        -6.2282    2.6520   -6.1522 H         1 <0>         0.1274
     68 H33        -7.4335    2.7449   -7.4579 H         1 <0>         0.1300
     69 H34        -7.5453    0.8897   -5.1879 H         1 <0>         0.4294
@<TRIPOS>BOND
     1    1    2 1
     2    1   36 1
     3    1   37 1
     4    1   38 1
     5    2    3 1
     6    2   39 1
     7    2   40 1
     8    3    7 2
     9    3    4 1
    10    4    5 2
    11    4   21 1
    12    5    6 1
    13    5   15 1
    14    6    7 1
    15    7    8 1
    16    8   13 ar
    17    8    9 ar
    18    9   10 ar
    19    9   41 1
    20   10   11 ar
    21   10   42 1
    22   11   12 ar
    23   11   14 1
    24   12   13 ar
    25   12   43 1
    26   13   44 1
    27   14   45 1
    28   15   20 ar
    29   15   16 ar
    30   16   17 ar
    31   16   46 1
    32   17   18 ar
    33   17   47 1
    34   18   19 ar
    35   18   48 1
    36   19   20 ar
    37   19   49 1
    38   20   50 1
    39   21   26 ar
    40   21   22 ar
    41   22   23 ar
    42   22   51 1
    43   23   24 ar
    44   23   52 1
    45   24   25 ar
    46   24   27 1
    47   25   26 ar
    48   25   53 1
    49   26   54 1
    50   27   28 1
    51   28   29 1
    52   28   55 1
    53   28   56 1
    54   29   30 1
    55   29   57 1
    56   29   58 1
    57   30   35 1
    58   30   31 1
    59   30   69 1
    60   31   32 1
    61   31   59 1
    62   31   60 1
    63   32   33 1
    64   32   61 1
    65   32   62 1
    66   33   34 1
    67   33   63 1
    68   33   64 1
    69   34   35 1
    70   34   65 1
    71   34   66 1
    72   35   67 1
    73   35   68 1
