@<TRIPOS>MOLECULE
CHEMBL315271
   68    72     0     0     0
SMALL
USER_CHARGES

@<TRIPOS>ATOM
      1 C1          0.0438    1.0466    0.0482 C.ar      1 <0>        -0.0590
      2 C2          1.1882    1.8192    0.0061 C.ar      1 <0>        -0.1394
      3 C3          2.4352    1.2115    0.0270 C.ar      1 <0>         0.1227
      4 C4          2.5294   -0.1712    0.0902 C.ar      1 <0>        -0.2037
      5 C5          1.3820   -0.9394    0.1320 C.ar      1 <0>        -0.0470
      6 C6          0.1404   -0.3313    0.1110 C.ar      1 <0>        -0.1013
      7 C7         -1.1097   -1.1716    0.1572 C.3       1 <0>         0.1435
      8 H1         -1.9490   -0.5587    0.4858 H         1 <0>         0.0917
      9 C8         -1.4021   -1.7360   -1.2431 C.3       1 <0>        -0.1049
     10 H2         -1.4481   -0.9242   -1.9691 H         1 <0>         0.1310
     11 S1         -3.0129   -2.5790   -1.1509 S.3       1 <0>        -0.0850
     12 C9         -2.8991   -3.4619    0.3750 C.ar      1 <0>        -0.1420
     13 C10        -3.8351   -4.4489    0.6544 C.ar      1 <0>        -0.0920
     14 C11        -3.7723   -5.1497    1.8479 C.ar      1 <0>         0.0985
     15 C12        -2.7712   -4.8578    2.7628 C.ar      1 <0>        -0.1114
     16 C13        -1.8397   -3.8790    2.4846 C.ar      1 <0>        -0.1136
     17 C14        -1.8883   -3.1729    1.2848 C.ar      1 <0>         0.1174
     18 O1         -0.9247   -2.2482    1.0635 O.3       1 <0>        -0.3108
     19 O2         -4.6871   -6.1179    2.1211 O.3       1 <0>        -0.4927
     20 C15        -0.3116   -2.7320   -1.6427 C.3       1 <0>        -0.1031
     21 C16        -0.5441   -3.1920   -3.0833 C.3       1 <0>        -0.0910
     22 C17        -1.8280   -4.0432   -3.1655 C.3       1 <0>        -0.1140
     23 C18        -1.4889   -5.1429   -4.2023 C.3       1 <0>        -0.1301
     24 C19        -0.0076   -5.4663   -3.8854 C.3       1 <0>        -0.1253
     25 C20         0.6133   -4.0968   -3.5410 C.3       1 <0>        -0.1180
     26 O3          3.5625    1.9693   -0.0147 O.3       1 <0>        -0.3272
     27 C21         4.8117    1.2758    0.0102 C.3       1 <0>         0.0250
     28 C22         5.9580    2.2878   -0.0434 C.3       1 <0>        -0.0009
     29 N1          5.9254    3.1288    1.1606 N.4       1 <0>        -0.3842
     30 C23         6.9247    4.1968    1.0368 C.3       1 <0>        -0.0070
     31 C24         6.8396    5.1234    2.2516 C.3       1 <0>        -0.1467
     32 C25         7.1096    4.3145    3.5236 C.3       1 <0>        -0.1391
     33 C26         6.1082    3.1588    3.6040 C.3       1 <0>        -0.1454
     34 C27         6.2203    2.3050    2.3391 C.3       1 <0>        -0.0133
     35 H3         -0.9271    1.5194    0.0364 H         1 <0>         0.1398
     36 H4          1.1123    2.8954   -0.0434 H         1 <0>         0.1379
     37 H5          3.4990   -0.6467    0.1062 H         1 <0>         0.1303
     38 H6          1.4548   -2.0158    0.1812 H         1 <0>         0.1377
     39 H7         -4.6136   -4.6710   -0.0604 H         1 <0>         0.1388
     40 H8         -2.7211   -5.3986    3.6963 H         1 <0>         0.1405
     41 H9         -1.0649   -3.6583    3.2039 H         1 <0>         0.1377
     42 H10        -4.4288   -6.9995    1.8194 H         1 <0>         0.3940
     43 H11         0.6641   -2.2520   -1.5676 H         1 <0>         0.0778
     44 H12        -0.3448   -3.5939   -0.9763 H         1 <0>         0.0730
     45 H13        -0.6254   -2.3276   -3.7424 H         1 <0>         0.0700
     46 H14        -2.0529   -4.4888   -2.1965 H         1 <0>         0.0770
     47 H15        -2.6656   -3.4378   -3.5118 H         1 <0>         0.0682
     48 H16        -2.1166   -6.0214   -4.0529 H         1 <0>         0.0657
     49 H17        -1.5921   -4.7612   -5.2180 H         1 <0>         0.0643
     50 H18         0.0614   -6.1417   -3.0327 H         1 <0>         0.0633
     51 H19         0.4832   -5.8994   -4.7570 H         1 <0>         0.0639
     52 H20         1.0931   -3.6720   -4.4227 H         1 <0>         0.0626
     53 H21         1.3406   -4.2082   -2.7368 H         1 <0>         0.0602
     54 H22         4.8850    0.6921    0.9278 H         1 <0>         0.0872
     55 H23         4.8746    0.6096   -0.8502 H         1 <0>         0.1101
     56 H24         6.9090    1.7574   -0.0905 H         1 <0>         0.1493
     57 H25         5.8477    2.9152   -0.9279 H         1 <0>         0.1428
     58 H26         7.9209    3.7574    0.9846 H         1 <0>         0.1292
     59 H27         6.7332    4.7695    0.1294 H         1 <0>         0.1311
     60 H28         7.5835    5.9146    2.1586 H         1 <0>         0.1132
     61 H29         5.8439    5.5635    2.3046 H         1 <0>         0.0880
     62 H30         8.1239    3.9165    3.4940 H         1 <0>         0.0822
     63 H31         6.9946    4.9579    4.3959 H         1 <0>         0.0949
     64 H32         6.3292    2.5457    4.4777 H         1 <0>         0.1124
     65 H33         5.0972    3.5581    3.6851 H         1 <0>         0.0879
     66 H34         5.5088    1.4810    2.3932 H         1 <0>         0.1272
     67 H35         7.2315    1.9059    2.2591 H         1 <0>         0.1304
     68 H36         5.0086    3.5385    1.2588 H         1 <0>         0.4293
@<TRIPOS>BOND
     1    1    6 ar
     2    1    2 ar
     3    1   35 1
     4    2    3 ar
     5    2   36 1
     6    3    4 ar
     7    3   26 1
     8    4    5 ar
     9    4   37 1
    10    5    6 ar
    11    5   38 1
    12    6    7 1
    13    7    8 1
    14    7   18 1
    15    7    9 1
    16    9   10 1
    17    9   11 1
    18    9   20 1
    19   11   12 1
    20   12   17 ar
    21   12   13 ar
    22   13   14 ar
    23   13   39 1
    24   14   15 ar
    25   14   19 1
    26   15   16 ar
    27   15   40 1
    28   16   17 ar
    29   16   41 1
    30   17   18 1
    31   19   42 1
    32   20   21 1
    33   20   43 1
    34   20   44 1
    35   21   25 1
    36   21   22 1
    37   21   45 1
    38   22   23 1
    39   22   46 1
    40   22   47 1
    41   23   24 1
    42   23   48 1
    43   23   49 1
    44   24   25 1
    45   24   50 1
    46   24   51 1
    47   25   52 1
    48   25   53 1
    49   26   27 1
    50   27   28 1
    51   27   54 1
    52   27   55 1
    53   28   29 1
    54   28   56 1
    55   28   57 1
    56   29   34 1
    57   29   30 1
    58   29   68 1
    59   30   31 1
    60   30   58 1
    61   30   59 1
    62   31   32 1
    63   31   60 1
    64   31   61 1
    65   32   33 1
    66   32   62 1
    67   32   63 1
    68   33   34 1
    69   33   64 1
    70   33   65 1
    71   34   66 1
    72   34   67 1
