@<TRIPOS>MOLECULE
CHEMBL535158
   64    69     0     0     0
SMALL
USER_CHARGES

@<TRIPOS>ATOM
      1 C1          0.0438    1.0466    0.0482 C.ar      1 <0>        -0.0592
      2 C2          1.1882    1.8192    0.0061 C.ar      1 <0>        -0.1358
      3 C3          2.4352    1.2115    0.0270 C.ar      1 <0>         0.1210
      4 C4          2.5294   -0.1712    0.0902 C.ar      1 <0>        -0.1958
      5 C5          1.3820   -0.9394    0.1320 C.ar      1 <0>        -0.0669
      6 C6          0.1404   -0.3313    0.1110 C.ar      1 <0>        -0.1340
      7 C7         -1.1097   -1.1716    0.1572 C.3       1 <0>         0.1833
      8 H1         -1.9312   -0.6190   -0.2986 H         1 <0>         0.1410
      9 C8         -1.4511   -1.4750    1.5917 C.ar      1 <0>        -0.0938
     10 C9         -2.2962   -0.6333    2.3268 C.ar      1 <0>        -0.0376
     11 C10        -2.8793    0.5058    1.7426 C.ar      1 <0>        -0.1004
     12 C11        -3.6944    1.3025    2.4840 C.ar      1 <0>        -0.1245
     13 C12        -3.9626    1.0063    3.8241 C.ar      1 <0>         0.1182
     14 C13        -3.4134   -0.0915    4.4230 C.ar      1 <0>        -0.1311
     15 C14        -2.5684   -0.9369    3.6858 C.ar      1 <0>        -0.0303
     16 C15        -1.9897   -2.0757    4.2760 C.ar      1 <0>        -0.0886
     17 C16        -1.1842   -2.8877    3.5417 C.ar      1 <0>        -0.0970
     18 C17        -0.9208   -2.6038    2.1952 C.ar      1 <0>        -0.0286
     19 C18        -0.0944   -3.5122    1.3648 C.ar      1 <0>        -0.0583
     20 C19         0.6709   -4.5209    1.9368 C.ar      1 <0>        -0.1194
     21 C20         1.4423   -5.3366    1.1284 C.ar      1 <0>         0.1134
     22 C21         1.4530   -5.1472   -0.2445 C.ar      1 <0>        -0.1588
     23 C22         0.6876   -4.1485   -0.8211 C.ar      1 <0>         0.1111
     24 C23        -0.0974   -3.3313   -0.0227 C.ar      1 <0>         0.0846
     25 O1         -0.8925   -2.3783   -0.5720 O.3       1 <0>        -0.2830
     26 F1          0.7057   -3.9703   -2.1602 F         1 <0>        -0.1155
     27 F2          2.1873   -6.3201    1.6787 F         1 <0>        -0.1233
     28 O2         -4.7802    1.8219    4.5402 O.3       1 <0>        -0.4985
     29 O3          3.5625    1.9693   -0.0147 O.3       1 <0>        -0.3265
     30 C24         4.8117    1.2758    0.0102 C.3       1 <0>         0.0244
     31 C25         5.9580    2.2878   -0.0434 C.3       1 <0>        -0.0005
     32 N1          5.9254    3.1288    1.1606 N.4       1 <0>        -0.3842
     33 C26         6.9247    4.1968    1.0368 C.3       1 <0>        -0.0070
     34 C27         6.8396    5.1234    2.2516 C.3       1 <0>        -0.1466
     35 C28         7.1096    4.3145    3.5236 C.3       1 <0>        -0.1389
     36 C29         6.1082    3.1588    3.6040 C.3       1 <0>        -0.1453
     37 C30         6.2203    2.3050    2.3391 C.3       1 <0>        -0.0134
     38 H2         -0.9271    1.5194    0.0364 H         1 <0>         0.1387
     39 H3          1.1123    2.8954   -0.0434 H         1 <0>         0.1382
     40 H4          3.4990   -0.6467    0.1062 H         1 <0>         0.1299
     41 H5          1.4548   -2.0158    0.1812 H         1 <0>         0.1293
     42 H6         -2.6801    0.7468    0.7089 H         1 <0>         0.1317
     43 H7         -4.1403    2.1761    2.0319 H         1 <0>         0.1363
     44 H8         -3.6280   -0.3085    5.4590 H         1 <0>         0.1396
     45 H9         -2.1855   -2.3044    5.3131 H         1 <0>         0.1390
     46 H10        -0.7432   -3.7603    4.0005 H         1 <0>         0.1355
     47 H11         0.6640   -4.6671    3.0068 H         1 <0>         0.1534
     48 H12         2.0632   -5.7832   -0.8688 H         1 <0>         0.1614
     49 H13        -5.7144    1.5751    4.5012 H         1 <0>         0.3977
     50 H14         4.8850    0.6921    0.9278 H         1 <0>         0.0865
     51 H15         4.8746    0.6096   -0.8502 H         1 <0>         0.1103
     52 H16         6.9090    1.7574   -0.0905 H         1 <0>         0.1495
     53 H17         5.8477    2.9152   -0.9279 H         1 <0>         0.1432
     54 H18         7.9209    3.7574    0.9846 H         1 <0>         0.1293
     55 H19         6.7332    4.7695    0.1294 H         1 <0>         0.1312
     56 H20         7.5835    5.9146    2.1586 H         1 <0>         0.1133
     57 H21         5.8439    5.5635    2.3046 H         1 <0>         0.0880
     58 H22         8.1239    3.9165    3.4940 H         1 <0>         0.0822
     59 H23         6.9946    4.9579    4.3959 H         1 <0>         0.0948
     60 H24         6.3292    2.5457    4.4777 H         1 <0>         0.1123
     61 H25         5.0972    3.5581    3.6851 H         1 <0>         0.0878
     62 H26         5.5088    1.4810    2.3932 H         1 <0>         0.1268
     63 H27         7.2315    1.9059    2.2591 H         1 <0>         0.1305
     64 H28         5.0086    3.5385    1.2588 H         1 <0>         0.4293
@<TRIPOS>BOND
     1    1    6 ar
     2    1    2 ar
     3    1   38 1
     4    2    3 ar
     5    2   39 1
     6    3    4 ar
     7    3   29 1
     8    4    5 ar
     9    4   40 1
    10    5    6 ar
    11    5   41 1
    12    6    7 1
    13    7    8 1
    14    7   25 1
    15    7    9 1
    16    9   18 ar
    17    9   10 ar
    18   10   15 ar
    19   10   11 ar
    20   11   12 ar
    21   11   42 1
    22   12   13 ar
    23   12   43 1
    24   13   14 ar
    25   13   28 1
    26   14   15 ar
    27   14   44 1
    28   15   16 ar
    29   16   17 ar
    30   16   45 1
    31   17   18 ar
    32   17   46 1
    33   18   19 1
    34   19   24 ar
    35   19   20 ar
    36   20   21 ar
    37   20   47 1
    38   21   22 ar
    39   21   27 1
    40   22   23 ar
    41   22   48 1
    42   23   24 ar
    43   23   26 1
    44   24   25 1
    45   28   49 1
    46   29   30 1
    47   30   31 1
    48   30   50 1
    49   30   51 1
    50   31   32 1
    51   31   52 1
    52   31   53 1
    53   32   37 1
    54   32   33 1
    55   32   64 1
    56   33   34 1
    57   33   54 1
    58   33   55 1
    59   34   35 1
    60   34   56 1
    61   34   57 1
    62   35   36 1
    63   35   58 1
    64   35   59 1
    65   36   37 1
    66   36   60 1
    67   36   61 1
    68   37   62 1
    69   37   63 1
