@<TRIPOS>MOLECULE
CHEMBL278233
   42    45     0     0     0
SMALL
USER_CHARGES

@<TRIPOS>ATOM
      1 C1         -0.0187    1.5258    0.0104 C.3       1 <0>        -0.1379
      2 C2          0.0021   -0.0041    0.0020 C.3       1 <0>        -0.1147
      3 C3          0.6301   -0.4733   -1.2900 C.3       1 <0>        -0.1029
      4 C4          0.8485   -1.9879   -1.2954 C.3       1 <0>        -0.1145
      5 C5          1.7447   -2.3389   -0.1057 C.3       1 <0>        -0.0412
      6 H1          2.6616   -1.7523   -0.1619 H         1 <0>         0.0857
      7 C6          2.0918   -3.8011   -0.1106 C.ar      1 <0>        -0.0787
      8 C7          2.3745   -4.4032   -1.3295 C.ar      1 <0>        -0.1016
      9 C8          2.7097   -5.7389   -1.3922 C.ar      1 <0>        -0.1470
     10 C9          2.7661   -6.4885   -0.2259 C.ar      1 <0>         0.1032
     11 C10         2.4795   -5.8894    0.9885 C.ar      1 <0>        -0.1479
     12 C11         2.1371   -4.5453    1.0494 C.ar      1 <0>        -0.0585
     13 C12         1.8141   -3.9667    2.4018 C.3       1 <0>        -0.0828
     14 C13         1.8468   -2.4394    2.3692 C.3       1 <0>        -0.1131
     15 C14         1.0024   -1.9879    1.1789 C.3       1 <0>        -0.0814
     16 C15         0.7511   -0.4930    1.2573 C.3       1 <0>        -0.0708
     17 H2          1.6700    0.0644    1.4392 H         1 <0>         0.0979
     18 C16        -0.3282   -0.2769    2.3594 C.3       1 <0>        -0.1195
     19 C17        -1.6445   -0.6746    1.6566 C.3       1 <0>        -0.1867
     20 C18        -1.4125   -0.5061    0.1661 C.2       1 <0>         0.3789
     21 O1         -2.2052   -0.7299   -0.7170 O.2       1 <0>        -0.4380
     22 O2          3.1007   -7.8047   -0.2757 O.3       1 <0>        -0.5001
     23 H3          1.0039    1.9031    0.0027 H         1 <0>         0.0704
     24 H4         -0.5459    1.8868   -0.8726 H         1 <0>         0.0608
     25 H5         -0.5289    1.8773    0.9072 H         1 <0>         0.0629
     26 H6         -0.0228   -0.2052   -2.1206 H         1 <0>         0.0714
     27 H7          1.5909    0.0249   -1.4197 H         1 <0>         0.0721
     28 H8         -0.1095   -2.4988   -1.1987 H         1 <0>         0.0647
     29 H9          1.3346   -2.2870   -2.2240 H         1 <0>         0.0729
     30 H10         2.3316   -3.8194   -2.2370 H         1 <0>         0.1277
     31 H11         2.9270   -6.1997   -2.3445 H         1 <0>         0.1279
     32 H12         2.5229   -6.4725    1.8965 H         1 <0>         0.1263
     33 H13         0.8201   -4.2967    2.7038 H         1 <0>         0.0771
     34 H14         2.5444   -4.3246    3.1275 H         1 <0>         0.0762
     35 H15         1.4261   -2.0431    3.2933 H         1 <0>         0.0746
     36 H16         2.8752   -2.0963    2.2562 H         1 <0>         0.0699
     37 H17         0.0397   -2.4989    1.1895 H         1 <0>         0.0739
     38 H18        -0.1386   -0.9254    3.2148 H         1 <0>         0.0809
     39 H19        -0.3581    0.7681    2.6678 H         1 <0>         0.0764
     40 H20        -1.8881   -1.7131    1.8809 H         1 <0>         0.0978
     41 H21        -2.4540   -0.0222    1.9841 H         1 <0>         0.0976
     42 H22         4.0496   -7.9727   -0.1945 H         1 <0>         0.3904
@<TRIPOS>BOND
     1    1    2 1
     2    1   23 1
     3    1   24 1
     4    1   25 1
     5    2   16 1
     6    2   20 1
     7    2    3 1
     8    3    4 1
     9    3   26 1
    10    3   27 1
    11    4    5 1
    12    4   28 1
    13    4   29 1
    14    5    6 1
    15    5   15 1
    16    5    7 1
    17    7   12 ar
    18    7    8 ar
    19    8    9 ar
    20    8   30 1
    21    9   10 ar
    22    9   31 1
    23   10   11 ar
    24   10   22 1
    25   11   12 ar
    26   11   32 1
    27   12   13 1
    28   13   14 1
    29   13   33 1
    30   13   34 1
    31   14   15 1
    32   14   35 1
    33   14   36 1
    34   15   16 1
    35   15   37 1
    36   16   17 1
    37   16   18 1
    38   18   19 1
    39   18   38 1
    40   18   39 1
    41   19   20 1
    42   19   40 1
    43   19   41 1
    44   20   21 2
    45   22   42 1
