@<TRIPOS>MOLECULE
CHEMBL59184
   54    57     0     0     0
SMALL
USER_CHARGES

@<TRIPOS>ATOM
      1 C1         -0.0184    1.5028    0.0103 C.3       1 <0>        -0.1186
      2 C2          0.0021   -0.0041    0.0020 C.ar      1 <0>        -0.1010
      3 C3          0.0057   -0.6863   -1.1964 C.ar      1 <0>        -0.0533
      4 C4          0.0246   -2.0801   -1.2032 C.ar      1 <0>        -0.1121
      5 C5          0.0398   -2.7803    0.0026 C.ar      1 <0>        -0.0854
      6 C6          0.0361   -2.0927    1.1974 C.ar      1 <0>        -0.1329
      7 C7          0.0230   -0.7039    1.2009 C.ar      1 <0>         0.1544
      8 O1          0.0249   -0.0290    2.3798 O.3       1 <0>        -0.4880
      9 C8          0.0281   -2.8168   -2.4901 C.ar      1 <0>         0.2483
     10 C9          0.0181   -2.1095   -3.6869 C.ar      1 <0>        -0.1757
     11 C10         0.0220   -2.8148   -4.8927 C.ar      1 <0>         0.1344
     12 C11         0.0357   -4.2098   -4.8451 C.ar      1 <0>        -0.2224
     13 C12         0.0451   -4.8451   -3.6096 C.ar      1 <0>         0.4602
     14 N1          0.0461   -4.1448   -2.4865 N.ar      1 <0>        -0.5190
     15 N2          0.0583   -6.2342   -3.5522 N.pl3     1 <0>        -0.5851
     16 C13         0.0682   -6.9136   -2.2544 C.3       1 <0>         0.0558
     17 C14         0.0623   -7.0184   -4.7897 C.3       1 <0>         0.1545
     18 C15         1.4845   -7.2739   -5.2178 C.ar      1 <0>        -0.1343
     19 C16         2.1274   -6.3770   -6.0504 C.ar      1 <0>        -0.1068
     20 C17         3.4319   -6.6114   -6.4432 C.ar      1 <0>        -0.1151
     21 C18         4.0936   -7.7424   -6.0029 C.ar      1 <0>        -0.1003
     22 C19         3.4511   -8.6388   -5.1695 C.ar      1 <0>        -0.1148
     23 C20         2.1480   -8.4022   -4.7733 C.ar      1 <0>        -0.0986
     24 C21         0.0112   -2.0985   -6.1924 C.ar      1 <0>        -0.1009
     25 C22         0.0095   -2.8166   -7.3864 C.ar      1 <0>        -0.0799
     26 C23        -0.0005   -2.1454   -8.5924 C.ar      1 <0>        -0.1188
     27 C24        -0.0083   -0.7624   -8.6170 C.ar      1 <0>        -0.0774
     28 C25        -0.0061   -0.0446   -7.4346 C.ar      1 <0>        -0.1184
     29 C26        -0.0029   -0.7056   -6.2230 C.ar      1 <0>        -0.0780
     30 H1          1.0042    1.8801    0.0026 H         1 <0>         0.0837
     31 H2         -0.5455    1.8639   -0.8728 H         1 <0>         0.0751
     32 H3         -0.5286    1.8543    0.9071 H         1 <0>         0.0778
     33 H4         -0.0065   -0.1413   -2.1287 H         1 <0>         0.1438
     34 H5          0.0541   -3.8602    0.0004 H         1 <0>         0.1231
     35 H6          0.0478   -2.6344    2.1316 H         1 <0>         0.1473
     36 H7         -0.8578    0.1543    2.7295 H         1 <0>         0.4046
     37 H8          0.0072   -1.0295   -3.6845 H         1 <0>         0.1775
     38 H9          0.0387   -4.7880   -5.7573 H         1 <0>         0.1770
     39 H10        -0.9570   -7.0918   -1.9297 H         1 <0>         0.0866
     40 H11         0.5908   -7.8657   -2.3467 H         1 <0>         0.1070
     41 H12         0.5781   -6.2889   -1.5211 H         1 <0>         0.0696
     42 H13        -0.4421   -7.9694   -4.6188 H         1 <0>         0.1157
     43 H14        -0.4588   -6.4660   -5.5716 H         1 <0>         0.1028
     44 H15         1.6103   -5.4934   -6.3944 H         1 <0>         0.1196
     45 H16         3.9339   -5.9111   -7.0943 H         1 <0>         0.1291
     46 H17         5.1126   -7.9259   -6.3103 H         1 <0>         0.1299
     47 H18         3.9680   -9.5225   -4.8258 H         1 <0>         0.1301
     48 H19         1.6472   -9.1006   -4.1192 H         1 <0>         0.1248
     49 H20         0.0163   -3.8965   -7.3684 H         1 <0>         0.1282
     50 H21        -0.0018   -2.7010   -9.5185 H         1 <0>         0.1371
     51 H22        -0.0157   -0.2412   -9.5628 H         1 <0>         0.1364
     52 H23        -0.0115    1.0351   -7.4596 H         1 <0>         0.1377
     53 H24        -0.0061   -0.1442   -5.3004 H         1 <0>         0.1320
     54 H25         0.0568   -4.6142   -1.6377 H         1 <0>         0.4327
@<TRIPOS>BOND
     1    1    2 1
     2    1   30 1
     3    1   31 1
     4    1   32 1
     5    2    7 ar
     6    2    3 ar
     7    3    4 ar
     8    3   33 1
     9    4    5 ar
    10    4    9 1
    11    5    6 ar
    12    5   34 1
    13    6    7 ar
    14    6   35 1
    15    7    8 1
    16    8   36 1
    17    9   14 ar
    18    9   10 ar
    19   10   11 ar
    20   10   37 1
    21   11   12 ar
    22   11   24 1
    23   12   13 ar
    24   12   38 1
    25   13   14 ar
    26   13   15 1
    27   14   54 1
    28   15   16 1
    29   15   17 1
    30   16   39 1
    31   16   40 1
    32   16   41 1
    33   17   18 1
    34   17   42 1
    35   17   43 1
    36   18   23 ar
    37   18   19 ar
    38   19   20 ar
    39   19   44 1
    40   20   21 ar
    41   20   45 1
    42   21   22 ar
    43   21   46 1
    44   22   23 ar
    45   22   47 1
    46   23   48 1
    47   24   29 ar
    48   24   25 ar
    49   25   26 ar
    50   25   49 1
    51   26   27 ar
    52   26   50 1
    53   27   28 ar
    54   27   51 1
    55   28   29 ar
    56   28   52 1
    57   29   53 1
