@<TRIPOS>MOLECULE
CHEMBL520107
   67    71     0     0     0
SMALL
USER_CHARGES

@<TRIPOS>ATOM
      1 C1          0.5713    1.8895   -0.0164 C.3       1 <0>        -0.0816
      2 C2          0.6525    0.3864   -0.0882 C.2       1 <0>        -0.1868
      3 C3          0.6344   -0.3889   -1.2601 C.2       1 <0>         0.1284
      4 N1          0.7250   -1.6582   -0.9191 N.2       1 <0>        -0.2590
      5 N2          0.8039   -1.7370    0.4771 N.pl3     1 <0>        -0.3161
      6 C4          0.7628   -0.4646    0.9729 C.2       1 <0>         0.1128
      7 C5          0.8241   -0.0797    2.3998 C.ar      1 <0>        -0.0527
      8 C6          1.6401    0.9775    2.8048 C.ar      1 <0>        -0.0484
      9 C7          1.6947    1.3333    4.1356 C.ar      1 <0>        -0.1379
     10 C8          0.9390    0.6412    5.0726 C.ar      1 <0>         0.1252
     11 C9          0.1258   -0.4112    4.6735 C.ar      1 <0>        -0.1991
     12 C10         0.0616   -0.7691    3.3437 C.ar      1 <0>        -0.0526
     13 O1          0.9956    0.9945    6.3834 O.3       1 <0>        -0.3258
     14 C11         0.1926    0.2405    7.2938 C.3       1 <0>         0.0244
     15 C12         0.3866    0.7801    8.7123 C.3       1 <0>        -0.0010
     16 N3         -0.0971    2.1656    8.7796 N.4       1 <0>        -0.3842
     17 C13         0.2286    2.7327   10.0937 C.3       1 <0>        -0.0071
     18 C14        -0.2006    4.2007   10.1404 C.3       1 <0>        -0.1467
     19 C15        -1.7107    4.2932    9.9028 C.3       1 <0>        -0.1391
     20 C16        -2.0481    3.6322    8.5633 C.3       1 <0>        -0.1455
     21 C17        -1.5505    2.1853    8.5749 C.3       1 <0>        -0.0132
     22 C18         0.9112   -2.9128    1.2317 C.ar      1 <0>         0.1415
     23 C19         1.6606   -2.9219    2.4008 C.ar      1 <0>        -0.1098
     24 C20         1.7655   -4.0806    3.1441 C.ar      1 <0>        -0.1259
     25 C21         1.1228   -5.2359    2.7230 C.ar      1 <0>         0.1100
     26 C22         0.3738   -5.2275    1.5550 C.ar      1 <0>        -0.1239
     27 C23         0.2634   -4.0680    0.8138 C.ar      1 <0>        -0.0909
     28 O2          1.2272   -6.3767    3.4548 O.3       1 <0>        -0.4934
     29 C24         0.5308    0.1331   -2.6454 C.ar      1 <0>        -0.0322
     30 C25         1.2525    1.2646   -3.0209 C.ar      1 <0>        -0.0757
     31 C26         1.1546    1.7471   -4.3092 C.ar      1 <0>        -0.1451
     32 C27         0.3378    1.1071   -5.2314 C.ar      1 <0>         0.1204
     33 C28        -0.3827   -0.0199   -4.8601 C.ar      1 <0>        -0.1449
     34 C29        -0.2840   -0.5107   -3.5749 C.ar      1 <0>        -0.0711
     35 O3          0.2430    1.5851   -6.4999 O.3       1 <0>        -0.4987
     36 H1          1.5776    2.3060    0.0275 H         1 <0>         0.0685
     37 H2          0.0595    2.2684   -0.9011 H         1 <0>         0.0744
     38 H3          0.0180    2.1812    0.8762 H         1 <0>         0.0648
     39 H4          2.2285    1.5160    2.0766 H         1 <0>         0.1435
     40 H5          2.3263    2.1511    4.4498 H         1 <0>         0.1404
     41 H6         -0.4605   -0.9471    5.4052 H         1 <0>         0.1320
     42 H7         -0.5747   -1.5847    3.0333 H         1 <0>         0.1297
     43 H8         -0.8565    0.3288    7.0118 H         1 <0>         0.0875
     44 H9          0.4911   -0.8073    7.2597 H         1 <0>         0.1104
     45 H10        -0.1750    0.1647    9.4151 H         1 <0>         0.1494
     46 H11         1.4453    0.7520    8.9701 H         1 <0>         0.1431
     47 H12        -0.2970    2.1760   10.8695 H         1 <0>         0.1292
     48 H13         1.3032    2.6632   10.2626 H         1 <0>         0.1313
     49 H14         0.0404    4.6194   11.1175 H         1 <0>         0.1132
     50 H15         0.3246    4.7584    9.3651 H         1 <0>         0.0882
     51 H16        -2.2382    3.7789   10.7062 H         1 <0>         0.0821
     52 H17        -2.0124    5.3403    9.8789 H         1 <0>         0.0950
     53 H18        -3.1277    3.6446    8.4130 H         1 <0>         0.1124
     54 H19        -1.5612    4.1781    7.7552 H         1 <0>         0.0882
     55 H20        -1.7893    1.7117    7.6227 H         1 <0>         0.1271
     56 H21        -2.0382    1.6403    9.3832 H         1 <0>         0.1303
     57 H22         2.1615   -2.0229    2.7284 H         1 <0>         0.1333
     58 H23         2.3483   -4.0879    4.0533 H         1 <0>         0.1380
     59 H24        -0.1259   -6.1272    1.2276 H         1 <0>         0.1423
     60 H25        -0.3233   -4.0604   -0.0930 H         1 <0>         0.1404
     61 H26         0.5405   -6.4762    4.1283 H         1 <0>         0.3938
     62 H27         1.8876    1.7633   -2.3037 H         1 <0>         0.1318
     63 H28         1.7137    2.6239   -4.6008 H         1 <0>         0.1356
     64 H29        -1.0179   -0.5153   -5.5794 H         1 <0>         0.1348
     65 H30        -0.8412   -1.3901   -3.2879 H         1 <0>         0.1301
     66 H31         0.8924    1.2108   -7.1108 H         1 <0>         0.3958
     67 H32         0.3504    2.7123    8.0593 H         1 <0>         0.4294
@<TRIPOS>BOND
     1    1    2 1
     2    1   36 1
     3    1   37 1
     4    1   38 1
     5    2    6 2
     6    2    3 1
     7    3    4 2
     8    3   29 1
     9    4    5 1
    10    5    6 1
    11    5   22 1
    12    6    7 1
    13    7   12 ar
    14    7    8 ar
    15    8    9 ar
    16    8   39 1
    17    9   10 ar
    18    9   40 1
    19   10   11 ar
    20   10   13 1
    21   11   12 ar
    22   11   41 1
    23   12   42 1
    24   13   14 1
    25   14   15 1
    26   14   43 1
    27   14   44 1
    28   15   16 1
    29   15   45 1
    30   15   46 1
    31   16   21 1
    32   16   17 1
    33   16   67 1
    34   17   18 1
    35   17   47 1
    36   17   48 1
    37   18   19 1
    38   18   49 1
    39   18   50 1
    40   19   20 1
    41   19   51 1
    42   19   52 1
    43   20   21 1
    44   20   53 1
    45   20   54 1
    46   21   55 1
    47   21   56 1
    48   22   27 ar
    49   22   23 ar
    50   23   24 ar
    51   23   57 1
    52   24   25 ar
    53   24   58 1
    54   25   26 ar
    55   25   28 1
    56   26   27 ar
    57   26   59 1
    58   27   60 1
    59   28   61 1
    60   29   34 ar
    61   29   30 ar
    62   30   31 ar
    63   30   62 1
    64   31   32 ar
    65   31   63 1
    66   32   33 ar
    67   32   35 1
    68   33   34 ar
    69   33   64 1
    70   34   65 1
    71   35   66 1
