@<TRIPOS>MOLECULE
CHEMBL432454
   64    69     0     0     0
SMALL
USER_CHARGES

@<TRIPOS>ATOM
      1 C1          0.3005    0.8417   -0.2383 C.ar      1 <0>        -0.0764
      2 C2          1.5064    1.5079   -0.2617 C.ar      1 <0>        -0.1421
      3 C3          2.6973    0.7953   -0.2021 C.ar      1 <0>         0.1184
      4 C4          2.6788   -0.5911   -0.1187 C.ar      1 <0>        -0.1427
      5 C5          1.4778   -1.2661   -0.0947 C.ar      1 <0>        -0.0861
      6 C6          0.2768   -0.5534   -0.1545 C.ar      1 <0>        -0.0582
      7 C7         -1.0101   -1.2705   -0.1291 C.2       1 <0>        -0.0768
      8 C8         -1.9070   -1.3201   -1.1247 C.2       1 <0>        -0.0587
      9 C9         -3.0722   -2.1312   -0.7387 C.ar      1 <0>        -0.0416
     10 C10        -4.2411   -2.4678   -1.4284 C.ar      1 <0>        -0.1133
     11 C11        -5.1963   -3.2616   -0.8192 C.ar      1 <0>         0.1251
     12 C12        -4.9988   -3.7250    0.4752 C.ar      1 <0>        -0.1320
     13 C13        -3.8435   -3.3950    1.1614 C.ar      1 <0>        -0.0735
     14 C14        -2.8864   -2.6069    0.5644 C.ar      1 <0>        -0.0996
     15 C15        -1.5503   -2.0840    1.0170 C.3       1 <0>        -0.0768
     16 C16        -0.6145   -3.2088    1.3698 C.2       1 <0>         0.4350
     17 O1         -0.2512   -4.1013    0.6335 O.2       1 <0>        -0.3899
     18 C17        -0.2230   -3.0221    2.7768 C.ar      1 <0>        -0.1639
     19 C18         0.6243   -3.7775    3.5941 C.ar      1 <0>        -0.0134
     20 C19         0.8422   -3.4010    4.9021 C.ar      1 <0>        -0.1839
     21 C20         0.2225   -2.2699    5.4207 C.ar      1 <0>         0.1425
     22 C21        -0.6219   -1.5067    4.6248 C.ar      1 <0>        -0.0857
     23 C22        -0.8516   -1.8733    3.2996 C.ar      1 <0>        -0.0935
     24 C23        -1.6890   -1.2455    2.2590 C.2       1 <0>         0.4349
     25 O2         -2.3612   -0.2441    2.3816 O.2       1 <0>        -0.3829
     26 O3          0.4432   -1.9102    6.7102 O.3       1 <0>        -0.3202
     27 C24         1.3220   -2.7390    7.4737 C.3       1 <0>         0.0215
     28 C25         1.4470   -2.1792    8.8921 C.3       1 <0>        -0.0011
     29 N1          0.1388   -2.2364    9.5581 N.4       1 <0>        -0.3854
     30 C26         0.2230   -1.5590   10.8575 C.3       1 <0>        -0.0070
     31 C27        -1.1564   -1.5446   11.5197 C.3       1 <0>        -0.1471
     32 C28        -1.6339   -2.9853   11.7234 C.3       1 <0>        -0.1392
     33 C29        -1.6467   -3.7043   10.3713 C.3       1 <0>        -0.1458
     34 C30        -0.2492   -3.6387    9.7516 C.3       1 <0>        -0.0136
     35 O4         -6.3324   -3.5888   -1.4894 O.3       1 <0>        -0.4940
     36 O5          3.8838    1.4565   -0.2260 O.3       1 <0>        -0.4958
     37 H1         -0.6250    1.3968   -0.2802 H         1 <0>         0.1339
     38 H2          1.5258    2.5857   -0.3269 H         1 <0>         0.1364
     39 H3          3.6073   -1.1408   -0.0729 H         1 <0>         0.1342
     40 H4          1.4644   -2.3441   -0.0302 H         1 <0>         0.1265
     41 H5         -1.7900   -0.8307   -2.0803 H         1 <0>         0.1529
     42 H6         -4.3980   -2.1086   -2.4348 H         1 <0>         0.1406
     43 H7         -5.7481   -4.3435    0.9468 H         1 <0>         0.1411
     44 H8         -3.6926   -3.7568    2.1678 H         1 <0>         0.1271
     45 H9          1.1089   -4.6583    3.1993 H         1 <0>         0.1502
     46 H10         1.4979   -3.9885    5.5277 H         1 <0>         0.1452
     47 H11        -1.1007   -0.6288    5.0328 H         1 <0>         0.1508
     48 H12         0.9206   -3.7515    7.5167 H         1 <0>         0.0916
     49 H13         2.3047   -2.7574    7.0025 H         1 <0>         0.1150
     50 H14         2.1674   -2.7729    9.4548 H         1 <0>         0.1520
     51 H15         1.7862   -1.1444    8.8458 H         1 <0>         0.1445
     52 H16         0.9276   -2.0892   11.4982 H         1 <0>         0.1299
     53 H17         0.5660   -0.5348   10.7113 H         1 <0>         0.1317
     54 H18        -1.0915   -1.0428   12.4852 H         1 <0>         0.1137
     55 H19        -1.8618   -1.0143   10.8799 H         1 <0>         0.0884
     56 H20        -0.9566   -3.5010   12.4041 H         1 <0>         0.0824
     57 H21        -2.6399   -2.9800   12.1429 H         1 <0>         0.0952
     58 H22        -1.9322   -4.7463   10.5159 H         1 <0>         0.1128
     59 H23        -2.3623   -3.2189    9.7077 H         1 <0>         0.0881
     60 H24        -0.2547   -4.1499    8.7889 H         1 <0>         0.1269
     61 H25         0.4655   -4.1246   10.4159 H         1 <0>         0.1313
     62 H26        -6.2649   -4.4055   -2.0027 H         1 <0>         0.3980
     63 H27         4.2153    1.7014    0.6488 H         1 <0>         0.3931
     64 H28        -0.5502   -1.7740    8.9840 H         1 <0>         0.4293
@<TRIPOS>BOND
     1    1    6 ar
     2    1    2 ar
     3    1   37 1
     4    2    3 ar
     5    2   38 1
     6    3    4 ar
     7    3   36 1
     8    4    5 ar
     9    4   39 1
    10    5    6 ar
    11    5   40 1
    12    6    7 1
    13    7   15 1
    14    7    8 2
    15    8    9 1
    16    8   41 1
    17    9   14 ar
    18    9   10 ar
    19   10   11 ar
    20   10   42 1
    21   11   12 ar
    22   11   35 1
    23   12   13 ar
    24   12   43 1
    25   13   14 ar
    26   13   44 1
    27   14   15 1
    28   15   24 1
    29   15   16 1
    30   16   17 2
    31   16   18 1
    32   18   23 ar
    33   18   19 ar
    34   19   20 ar
    35   19   45 1
    36   20   21 ar
    37   20   46 1
    38   21   22 ar
    39   21   26 1
    40   22   23 ar
    41   22   47 1
    42   23   24 1
    43   24   25 2
    44   26   27 1
    45   27   28 1
    46   27   48 1
    47   27   49 1
    48   28   29 1
    49   28   50 1
    50   28   51 1
    51   29   34 1
    52   29   30 1
    53   29   64 1
    54   30   31 1
    55   30   52 1
    56   30   53 1
    57   31   32 1
    58   31   54 1
    59   31   55 1
    60   32   33 1
    61   32   56 1
    62   32   57 1
    63   33   34 1
    64   33   58 1
    65   33   59 1
    66   34   60 1
    67   34   61 1
    68   35   62 1
    69   36   63 1
