@<TRIPOS>MOLECULE
CHEMBL234463
   45    48     0     0     0
SMALL
USER_CHARGES

@<TRIPOS>ATOM
      1 C1          1.1825   -0.6432   -0.3293 C.ar      1 <0>        -0.0752
      2 C2          2.3713    0.0605   -0.3384 C.ar      1 <0>        -0.1459
      3 C3          2.3800    1.4095   -0.0148 C.ar      1 <0>         0.1108
      4 C4          1.1942    2.0484    0.3173 C.ar      1 <0>        -0.1432
      5 C5          0.0081    1.3403    0.3249 C.ar      1 <0>        -0.0904
      6 C6          0.0021   -0.0041    0.0020 C.ar      1 <0>        -0.0906
      7 C7         -1.2934   -0.7740    0.0107 C.3       1 <0>         0.1425
      8 H1         -2.1037   -0.1290   -0.3291 H         1 <0>         0.0818
      9 C8         -1.5889   -1.2638    1.4296 C.3       1 <0>        -0.1014
     10 H2         -1.7872   -0.3517    1.9924 H         1 <0>         0.0739
     11 C9         -0.3967   -1.8585    2.0815 C.3       1 <0>        -0.1154
     12 C10        -0.2967   -1.5105    3.5716 C.3       1 <0>        -0.1114
     13 C11        -1.2622   -2.3290    4.3373 C.3       1 <0>        -0.1213
     14 C12        -2.7223   -2.0637    3.9775 C.3       1 <0>        -0.1180
     15 C13        -3.1176   -2.8491    2.7493 C.3       1 <0>        -0.1045
     16 C14        -2.8803   -2.0252    1.4724 C.3       1 <0>        -0.0305
     17 H3         -3.6891   -1.2970    1.4129 H         1 <0>         0.0765
     18 C15        -3.0251   -2.9331    0.2767 C.ar      1 <0>        -0.1359
     19 C16        -4.0252   -3.8912    0.2858 C.ar      1 <0>        -0.1101
     20 C17        -4.1879   -4.7396   -0.7974 C.ar      1 <0>         0.0740
     21 C18        -3.3465   -4.6291   -1.8945 C.ar      1 <0>        -0.1133
     22 C19        -2.3489   -3.6762   -1.9037 C.ar      1 <0>        -0.1299
     23 C20        -2.1835   -2.8254   -0.8161 C.ar      1 <0>         0.1256
     24 O1         -1.1847   -1.9032   -0.8571 O.3       1 <0>        -0.3062
     25 O2         -5.1707   -5.6793   -0.7848 O.3       1 <0>        -0.4972
     26 O3          3.5483    2.1038   -0.0226 O.3       1 <0>        -0.4996
     27 H4          1.1746   -1.6923   -0.5856 H         1 <0>         0.1346
     28 H5          3.2932   -0.4392   -0.5969 H         1 <0>         0.1312
     29 H6          1.1985    3.0985    0.5700 H         1 <0>         0.1319
     30 H7         -0.9153    1.8373    0.5834 H         1 <0>         0.1282
     31 H8         -0.4426   -2.9424    1.9761 H         1 <0>         0.0617
     32 H9          0.4980   -1.4961    1.5752 H         1 <0>         0.0759
     33 H10         0.7138   -1.7154    3.9253 H         1 <0>         0.0662
     34 H11        -0.5235   -0.4539    3.7137 H         1 <0>         0.0611
     35 H12        -1.0455   -3.3818    4.1564 H         1 <0>         0.0598
     36 H13        -1.1238   -2.1266    5.3994 H         1 <0>         0.0574
     37 H14        -3.3576   -2.3586    4.8127 H         1 <0>         0.0646
     38 H15        -2.8569   -0.9998    3.7825 H         1 <0>         0.0633
     39 H16        -2.5197   -3.7590    2.6967 H         1 <0>         0.0679
     40 H17        -4.1722   -3.1163    2.8176 H         1 <0>         0.0685
     41 H18        -4.6806   -3.9770    1.1400 H         1 <0>         0.1323
     42 H19        -3.4719   -5.2886   -2.7404 H         1 <0>         0.1348
     43 H20        -1.6941   -3.5908   -2.7583 H         1 <0>         0.1352
     44 H21        -6.0122   -5.3733   -1.1500 H         1 <0>         0.3879
     45 H22         3.7590    2.5095   -0.8747 H         1 <0>         0.3928
@<TRIPOS>BOND
     1    1    6 ar
     2    1    2 ar
     3    1   27 1
     4    2    3 ar
     5    2   28 1
     6    3    4 ar
     7    3   26 1
     8    4    5 ar
     9    4   29 1
    10    5    6 ar
    11    5   30 1
    12    6    7 1
    13    7    8 1
    14    7   24 1
    15    7    9 1
    16    9   10 1
    17    9   16 1
    18    9   11 1
    19   11   12 1
    20   11   31 1
    21   11   32 1
    22   12   13 1
    23   12   33 1
    24   12   34 1
    25   13   14 1
    26   13   35 1
    27   13   36 1
    28   14   15 1
    29   14   37 1
    30   14   38 1
    31   15   16 1
    32   15   39 1
    33   15   40 1
    34   16   17 1
    35   16   18 1
    36   18   23 ar
    37   18   19 ar
    38   19   20 ar
    39   19   41 1
    40   20   21 ar
    41   20   25 1
    42   21   22 ar
    43   21   42 1
    44   22   23 ar
    45   22   43 1
    46   23   24 1
    47   25   44 1
    48   26   45 1
