@<TRIPOS>MOLECULE
CHEMBL204434
   50    52     0     0     0
SMALL
USER_CHARGES

@<TRIPOS>ATOM
      1 C1          0.1460    1.0973    0.5968 C.3       1 <0>        -0.1516
      2 C2          0.0939   -0.4130    0.3573 C.3       1 <0>        -0.1485
      3 C3         -1.3639   -0.8773    0.3449 C.3       1 <0>         0.1103
      4 N1         -1.4139   -2.3234    0.1155 N.pl3     1 <0>        -0.9444
      5 C4         -1.3095   -3.2042    1.1918 C.ar      1 <0>         0.1414
      6 C5         -0.0608   -3.5654    1.6780 C.ar      1 <0>        -0.1118
      7 C6          0.0403   -4.4379    2.7441 C.ar      1 <0>        -0.1130
      8 C7         -1.0999   -4.9561    3.3336 C.ar      1 <0>        -0.1054
      9 C8         -2.3483   -4.6059    2.8609 C.ar      1 <0>        -0.1000
     10 C9         -2.4638   -3.7229    1.7899 C.ar      1 <0>        -0.0212
     11 C10        -3.8031   -3.3387    1.2822 C.ar      1 <0>        -0.0585
     12 C11        -4.1673   -1.9949    1.2167 C.ar      1 <0>        -0.1106
     13 C12        -5.4150   -1.6431    0.7434 C.ar      1 <0>        -0.1226
     14 C13        -6.3037   -2.6213    0.3347 C.ar      1 <0>        -0.1143
     15 C14        -5.9476   -3.9565    0.3975 C.ar      1 <0>        -0.1214
     16 C15        -4.7003   -4.3196    0.8632 C.ar      1 <0>        -0.0866
     17 S1         -1.5942   -2.9122   -1.4217 S.o2      1 <0>         2.6834
     18 O1         -2.2225   -4.1809   -1.2995 O.2       1 <0>        -0.9360
     19 O2         -2.1490   -1.8589   -2.1976 O.2       1 <0>        -0.9487
     20 C16         0.0215   -3.2097   -2.0586 C.ar      1 <0>        -0.6844
     21 C17         0.6475   -2.2474   -2.8296 C.ar      1 <0>        -0.0107
     22 C18         1.9139   -2.4783   -3.3304 C.ar      1 <0>        -0.1610
     23 C19         2.5581   -3.6769   -3.0588 C.ar      1 <0>         0.1636
     24 C20         1.9282   -4.6403   -2.2848 C.ar      1 <0>        -0.1297
     25 C21         0.6635   -4.4024   -1.7819 C.ar      1 <0>        -0.0017
     26 C22         2.6250   -5.9432   -1.9880 C.3       1 <0>        -0.1159
     27 O3          3.8039   -3.9067   -3.5508 O.3       1 <0>        -0.4932
     28 H1          1.1845    1.4281    0.6057 H         1 <0>         0.0594
     29 H2         -0.3920    1.6103   -0.2003 H         1 <0>         0.0595
     30 H3         -0.3174    1.3293    1.5557 H         1 <0>         0.0583
     31 H4          0.5573   -0.6450   -0.6016 H         1 <0>         0.0631
     32 H5          0.6318   -0.9261    1.1544 H         1 <0>         0.0714
     33 H6         -1.8273   -0.6453    1.3038 H         1 <0>         0.0898
     34 H7         -1.9019   -0.3643   -0.4523 H         1 <0>         0.1001
     35 H8          0.8324   -3.1645    1.2223 H         1 <0>         0.1281
     36 H9          1.0137   -4.7173    3.1194 H         1 <0>         0.1285
     37 H10        -1.0121   -5.6377    4.1668 H         1 <0>         0.1293
     38 H11        -3.2351   -5.0133    3.3235 H         1 <0>         0.1307
     39 H12        -3.4745   -1.2304    1.5362 H         1 <0>         0.1246
     40 H13        -5.6983   -0.6022    0.6922 H         1 <0>         0.1251
     41 H14        -7.2793   -2.3415   -0.0344 H         1 <0>         0.1237
     42 H15        -6.6454   -4.7160    0.0771 H         1 <0>         0.1255
     43 H16        -4.4216   -5.3621    0.9073 H         1 <0>         0.1259
     44 H17         0.1456   -1.3147   -3.0406 H         1 <0>         0.1446
     45 H18         2.4020   -1.7268   -3.9331 H         1 <0>         0.1409
     46 H19         0.1743   -5.1505   -1.1758 H         1 <0>         0.1416
     47 H20         3.2032   -5.8449   -1.0693 H         1 <0>         0.0735
     48 H21         1.8832   -6.7327   -1.8678 H         1 <0>         0.0728
     49 H22         3.2925   -6.1942   -2.8124 H         1 <0>         0.0773
     50 H23         4.5174   -3.6185   -2.9651 H         1 <0>         0.3988
@<TRIPOS>BOND
     1    1    2 1
     2    1   28 1
     3    1   29 1
     4    1   30 1
     5    2    3 1
     6    2   31 1
     7    2   32 1
     8    3    4 1
     9    3   33 1
    10    3   34 1
    11    4    5 1
    12    4   17 1
    13    5   10 ar
    14    5    6 ar
    15    6    7 ar
    16    6   35 1
    17    7    8 ar
    18    7   36 1
    19    8    9 ar
    20    8   37 1
    21    9   10 ar
    22    9   38 1
    23   10   11 1
    24   11   16 ar
    25   11   12 ar
    26   12   13 ar
    27   12   39 1
    28   13   14 ar
    29   13   40 1
    30   14   15 ar
    31   14   41 1
    32   15   16 ar
    33   15   42 1
    34   16   43 1
    35   17   18 2
    36   17   19 2
    37   17   20 1
    38   20   25 ar
    39   20   21 ar
    40   21   22 ar
    41   21   44 1
    42   22   23 ar
    43   22   45 1
    44   23   24 ar
    45   23   27 1
    46   24   25 ar
    47   24   26 1
    48   25   46 1
    49   26   47 1
    50   26   48 1
    51   26   49 1
    52   27   50 1
