@<TRIPOS>MOLECULE
CHEMBL93230
   71    76     0     0     0
SMALL
USER_CHARGES

@<TRIPOS>ATOM
      1 C1         11.0546    4.8284   -0.5745 C.ar      1 <0>        -0.1175
      2 C2         10.5556    3.5414   -0.7679 C.ar      1 <0>        -0.0812
      3 C3          9.3171    3.1958   -0.3223 C.ar      1 <0>        -0.1529
      4 C4          8.5268    4.1483    0.3437 C.ar      1 <0>         0.0292
      5 C5          9.0345    5.4570    0.5408 C.ar      1 <0>        -0.0750
      6 C6         10.3181    5.7767    0.0659 C.ar      1 <0>        -0.0942
      7 C7          8.2447    6.4091    1.2070 C.ar      1 <0>        -0.0344
      8 C8          7.0060    6.0632    1.6531 C.ar      1 <0>        -0.1577
      9 C9          6.5072    4.7767    1.4598 C.ar      1 <0>        -0.0053
     10 C10         7.2437    3.8285    0.8183 C.ar      1 <0>        -0.6720
     11 S1          6.5912    2.2085    0.5846 S.o2      1 <0>         2.6903
     12 O1          7.6839    1.3087    0.7094 O.2       1 <0>        -0.9507
     13 O2          5.4313    2.1162    1.4003 O.2       1 <0>        -0.9403
     14 N1          6.0746    2.1106   -0.9857 N.pl3     1 <0>        -0.9922
     15 C11         6.9120    1.4985   -2.0305 C.3       1 <0>         0.1153
     16 C12         6.1894    0.2532   -2.5417 C.3       1 <0>        -0.1000
     17 C13         4.7434    0.5550   -2.8353 C.ar      1 <0>        -0.0435
     18 C14         4.0662   -0.3090   -3.6864 C.ar      1 <0>        -0.1462
     19 C15         2.7329   -0.0955   -3.9901 C.ar      1 <0>         0.1176
     20 C16         2.0673    0.9901   -3.4388 C.ar      1 <0>        -0.1456
     21 C17         2.7423    1.8486   -2.5974 C.ar      1 <0>        -0.0880
     22 C18         4.0817    1.6365   -2.2977 C.ar      1 <0>        -0.1029
     23 C19         4.7618    2.6248   -1.3902 C.3       1 <0>         0.2452
     24 C20         3.9116    2.8475   -0.1660 C.ar      1 <0>        -0.1183
     25 C21         3.1159    1.8251    0.3170 C.ar      1 <0>        -0.0158
     26 C22         2.3353    2.0269    1.4388 C.ar      1 <0>        -0.1304
     27 C23         2.3506    3.2565    2.0811 C.ar      1 <0>         0.1298
     28 C24         3.1502    4.2806    1.5947 C.ar      1 <0>        -0.2003
     29 C25         3.9329    4.0721    0.4757 C.ar      1 <0>        -0.0733
     30 O3          1.5833    3.4576    3.1845 O.3       1 <0>        -0.3288
     31 C26         1.6492    4.7484    3.7941 C.3       1 <0>         0.0261
     32 C27         0.7247    4.7848    5.0127 C.3       1 <0>         0.0035
     33 N2          1.2194    3.8484    6.0308 N.4       1 <0>        -0.3959
     34 C28         2.4999    4.3406    6.6002 C.3       1 <0>        -0.0111
     35 C29         2.5826    3.6146    7.9664 C.3       1 <0>        -0.1450
     36 C30         1.1125    3.6091    8.4445 C.3       1 <0>        -0.1449
     37 C31         0.2728    3.7817    7.1652 C.3       1 <0>        -0.0085
     38 O4          2.0786   -0.9451   -4.8250 O.3       1 <0>        -0.4976
     39 H1         12.0425    5.0755   -0.9344 H         1 <0>         0.1323
     40 H2         11.1609    2.8076   -1.2794 H         1 <0>         0.1339
     41 H3          8.9433    2.1949   -0.4799 H         1 <0>         0.1498
     42 H4         10.7179    6.7698    0.2088 H         1 <0>         0.1339
     43 H5          8.6186    7.4100    1.3646 H         1 <0>         0.1375
     44 H6          6.4009    6.7970    2.1649 H         1 <0>         0.1318
     45 H7          5.5213    4.5282    1.8240 H         1 <0>         0.1467
     46 H8          7.0549    2.2040   -2.8490 H         1 <0>         0.0852
     47 H9          7.8784    1.2182   -1.6114 H         1 <0>         0.1029
     48 H10         6.6754   -0.0944   -3.4534 H         1 <0>         0.0964
     49 H11         6.2458   -0.5298   -1.7854 H         1 <0>         0.0876
     50 H12         4.5843   -1.1545   -4.1143 H         1 <0>         0.1324
     51 H13         1.0258    1.1613   -3.6673 H         1 <0>         0.1321
     52 H14         2.2249    2.6935   -2.1676 H         1 <0>         0.1284
     53 H15         4.8895    3.5694   -1.9189 H         1 <0>         0.0978
     54 H16         3.1043    0.8681   -0.1833 H         1 <0>         0.1310
     55 H17         1.7134    1.2282    1.8153 H         1 <0>         0.1299
     56 H18         3.1639    5.2387    2.0930 H         1 <0>         0.1259
     57 H19         4.5589    4.8676    0.0992 H         1 <0>         0.1286
     58 H20         2.6732    4.9497    4.1088 H         1 <0>         0.0849
     59 H21         1.3341    5.5057    3.0763 H         1 <0>         0.1080
     60 H22         0.7066    5.7936    5.4250 H         1 <0>         0.1476
     61 H23        -0.2829    4.4966    4.7130 H         1 <0>         0.1411
     62 H24         3.3380    4.0582    5.9631 H         1 <0>         0.1343
     63 H25         2.4686    5.4212    6.7400 H         1 <0>         0.1345
     64 H26         2.9511    2.5966    7.8406 H         1 <0>         0.0988
     65 H27         3.2121    4.1707    8.6612 H         1 <0>         0.1170
     66 H28         0.8753    2.6613    8.9277 H         1 <0>         0.1055
     67 H29         0.9341    4.4385    9.1289 H         1 <0>         0.1041
     68 H30        -0.3046    4.7045    7.2218 H         1 <0>         0.1311
     69 H31        -0.3953    2.9294    7.0417 H         1 <0>         0.1328
     70 H32         1.6523   -1.6876   -4.3755 H         1 <0>         0.3941
     71 H33         1.3459    2.9317    5.6288 H         1 <0>         0.4345
@<TRIPOS>BOND
     1    1    6 ar
     2    1    2 ar
     3    1   39 1
     4    2    3 ar
     5    2   40 1
     6    3    4 ar
     7    3   41 1
     8    4   10 ar
     9    4    5 ar
    10    5    6 ar
    11    5    7 ar
    12    6   42 1
    13    7    8 ar
    14    7   43 1
    15    8    9 ar
    16    8   44 1
    17    9   10 ar
    18    9   45 1
    19   10   11 1
    20   11   12 2
    21   11   13 2
    22   11   14 1
    23   14   23 1
    24   14   15 1
    25   15   16 1
    26   15   46 1
    27   15   47 1
    28   16   17 1
    29   16   48 1
    30   16   49 1
    31   17   22 ar
    32   17   18 ar
    33   18   19 ar
    34   18   50 1
    35   19   20 ar
    36   19   38 1
    37   20   21 ar
    38   20   51 1
    39   21   22 ar
    40   21   52 1
    41   22   23 1
    42   23   24 1
    43   23   53 1
    44   24   29 ar
    45   24   25 ar
    46   25   26 ar
    47   25   54 1
    48   26   27 ar
    49   26   55 1
    50   27   28 ar
    51   27   30 1
    52   28   29 ar
    53   28   56 1
    54   29   57 1
    55   30   31 1
    56   31   32 1
    57   31   58 1
    58   31   59 1
    59   32   33 1
    60   32   60 1
    61   32   61 1
    62   33   37 1
    63   33   34 1
    64   33   71 1
    65   34   35 1
    66   34   62 1
    67   34   63 1
    68   35   36 1
    69   35   64 1
    70   35   65 1
    71   36   37 1
    72   36   66 1
    73   36   67 1
    74   37   68 1
    75   37   69 1
    76   38   70 1
