@<TRIPOS>MOLECULE
CHEMBL381645
   62    66     0     0     0
SMALL
USER_CHARGES

@<TRIPOS>ATOM
      1 C1          0.0073    1.0890    0.2277 C.ar      1 <0>        -0.0845
      2 C2          1.1488    1.8593    0.1879 C.ar      1 <0>        -0.1421
      3 C3          2.3960    1.2534    0.1036 C.ar      1 <0>         0.1121
      4 C4          2.4997   -0.1312    0.0591 C.ar      1 <0>        -0.1455
      5 C5          1.3648   -0.9111    0.0987 C.ar      1 <0>        -0.0812
      6 C6          0.1059   -0.3061    0.1835 C.ar      1 <0>        -0.0443
      7 C7         -1.1087   -1.1333    0.2261 C.2       1 <0>        -0.0644
      8 C8         -1.5583   -1.9400   -0.7627 C.2       1 <0>        -0.0428
      9 C9         -2.8090   -2.6108   -0.3544 C.ar      1 <0>        -0.0741
     10 C10        -3.6350   -3.5206   -1.0217 C.ar      1 <0>        -0.0773
     11 C11        -4.7673   -4.0043   -0.4039 C.ar      1 <0>        -0.1442
     12 C12        -5.0940   -3.5918    0.8815 C.ar      1 <0>         0.1176
     13 C13        -4.2772   -2.6881    1.5498 C.ar      1 <0>        -0.1252
     14 C14        -3.1452   -2.2024    0.9376 C.ar      1 <0>        -0.0776
     15 C15        -2.0730   -1.2385    1.3842 C.3       1 <0>        -0.0544
     16 O1         -6.2126   -4.0718    1.4852 O.3       1 <0>        -0.4956
     17 C16        -0.8905   -2.1243   -2.0700 C.ar      1 <0>        -0.0486
     18 C17        -0.7839   -1.0530   -2.9585 C.ar      1 <0>        -0.0566
     19 C18        -0.1610   -1.2287   -4.1756 C.ar      1 <0>        -0.1372
     20 C19         0.3598   -2.4696   -4.5184 C.ar      1 <0>         0.1142
     21 C20         0.2553   -3.5380   -3.6374 C.ar      1 <0>        -0.2003
     22 C21        -0.3603   -3.3685   -2.4156 C.ar      1 <0>        -0.0643
     23 O2          0.9726   -2.6390   -5.7191 O.3       1 <0>        -0.3282
     24 C22         1.4856   -3.9411   -6.0077 C.3       1 <0>         0.0257
     25 C23         2.1351   -3.9379   -7.3930 C.3       1 <0>        -0.0009
     26 N1          3.2884   -3.0279   -7.3910 N.4       1 <0>        -0.3842
     27 C24         3.8154   -2.9054   -8.7555 C.3       1 <0>        -0.0069
     28 C25         4.9657   -1.8964   -8.7733 C.3       1 <0>        -0.1468
     29 C26         6.0766   -2.3804   -7.8369 C.3       1 <0>        -0.1387
     30 C27         5.4978   -2.5759   -6.4326 C.3       1 <0>        -0.1456
     31 C28         4.3278   -3.5597   -6.5015 C.3       1 <0>        -0.0129
     32 O3          3.5185    2.0178    0.0643 O.3       1 <0>        -0.5013
     33 H1         -0.9617    1.5609    0.2973 H         1 <0>         0.1309
     34 H2          1.0738    2.9361    0.2219 H         1 <0>         0.1333
     35 H3          3.4718   -0.5971   -0.0072 H         1 <0>         0.1289
     36 H4          1.4466   -1.9875    0.0636 H         1 <0>         0.1250
     37 H5         -3.3855   -3.8437   -2.0216 H         1 <0>         0.1240
     38 H6         -5.4037   -4.7069   -0.9214 H         1 <0>         0.1333
     39 H7         -4.5311   -2.3668    2.5491 H         1 <0>         0.1332
     40 H8         -1.5613   -1.6238    2.2662 H         1 <0>         0.1096
     41 H9         -2.5115   -0.2639    1.5985 H         1 <0>         0.1090
     42 H10        -6.0683   -4.8813    1.9941 H         1 <0>         0.3948
     43 H11        -1.1892   -0.0879   -2.6928 H         1 <0>         0.1343
     44 H12        -0.0781   -0.4003   -4.8635 H         1 <0>         0.1339
     45 H13         0.6609   -4.5017   -3.9078 H         1 <0>         0.1283
     46 H14        -0.4366   -4.1985   -1.7288 H         1 <0>         0.1310
     47 H15         2.2292   -4.2130   -5.2584 H         1 <0>         0.0860
     48 H16         0.6707   -4.6648   -5.9902 H         1 <0>         0.1091
     49 H17         2.4681   -4.9459   -7.6405 H         1 <0>         0.1487
     50 H18         1.4092   -3.6028   -8.1339 H         1 <0>         0.1425
     51 H19         4.1789   -3.8761   -9.0926 H         1 <0>         0.1290
     52 H20         3.0228   -2.5640   -9.4213 H         1 <0>         0.1309
     53 H21         5.3568   -1.8082   -9.7869 H         1 <0>         0.1130
     54 H22         4.6032   -0.9252   -8.4365 H         1 <0>         0.0881
     55 H23         6.4745   -3.3271   -8.2022 H         1 <0>         0.0819
     56 H24         6.8736   -1.6376   -7.8024 H         1 <0>         0.0947
     57 H25         6.2692   -2.9734   -5.7731 H         1 <0>         0.1121
     58 H26         5.1463   -1.6188   -6.0472 H         1 <0>         0.0882
     59 H27         3.9135   -3.7014   -5.5033 H         1 <0>         0.1271
     60 H28         4.6804   -4.5165   -6.8867 H         1 <0>         0.1300
     61 H29         3.8911    2.2146    0.9346 H         1 <0>         0.3955
     62 H30         2.9980   -2.1194   -7.0619 H         1 <0>         0.4297
@<TRIPOS>BOND
     1    1    6 ar
     2    1    2 ar
     3    1   33 1
     4    2    3 ar
     5    2   34 1
     6    3    4 ar
     7    3   32 1
     8    4    5 ar
     9    4   35 1
    10    5    6 ar
    11    5   36 1
    12    6    7 1
    13    7   15 1
    14    7    8 2
    15    8    9 1
    16    8   17 1
    17    9   14 ar
    18    9   10 ar
    19   10   11 ar
    20   10   37 1
    21   11   12 ar
    22   11   38 1
    23   12   13 ar
    24   12   16 1
    25   13   14 ar
    26   13   39 1
    27   14   15 1
    28   15   40 1
    29   15   41 1
    30   16   42 1
    31   17   22 ar
    32   17   18 ar
    33   18   19 ar
    34   18   43 1
    35   19   20 ar
    36   19   44 1
    37   20   21 ar
    38   20   23 1
    39   21   22 ar
    40   21   45 1
    41   22   46 1
    42   23   24 1
    43   24   25 1
    44   24   47 1
    45   24   48 1
    46   25   26 1
    47   25   49 1
    48   25   50 1
    49   26   31 1
    50   26   27 1
    51   26   62 1
    52   27   28 1
    53   27   51 1
    54   27   52 1
    55   28   29 1
    56   28   53 1
    57   28   54 1
    58   29   30 1
    59   29   55 1
    60   29   56 1
    61   30   31 1
    62   30   57 1
    63   30   58 1
    64   31   59 1
    65   31   60 1
    66   32   61 1
