@<TRIPOS>MOLECULE
CHEMBL360872
   67    72     0     0     0
SMALL
USER_CHARGES

@<TRIPOS>ATOM
      1 C1          0.0438    1.0466    0.0482 C.ar      1 <0>        -0.0737
      2 C2          1.1882    1.8192    0.0061 C.ar      1 <0>        -0.1361
      3 C3          2.4352    1.2115    0.0270 C.ar      1 <0>         0.1111
      4 C4          2.5294   -0.1712    0.0902 C.ar      1 <0>        -0.1985
      5 C5          1.3820   -0.9394    0.1320 C.ar      1 <0>        -0.0640
      6 C6          0.1404   -0.3313    0.1110 C.ar      1 <0>        -0.0828
      7 C7         -1.1097   -1.1716    0.1572 C.3       1 <0>         0.0354
      8 C8         -1.1549   -2.0480   -1.0608 C.ar      1 <0>        -0.0822
      9 C9         -1.6575   -1.5225   -2.2427 C.ar      1 <0>        -0.0906
     10 C10        -1.7153   -2.2968   -3.3825 C.ar      1 <0>        -0.1431
     11 C11        -1.2687   -3.6101   -3.3470 C.ar      1 <0>         0.1140
     12 C12        -0.7670   -4.1334   -2.1667 C.ar      1 <0>        -0.1422
     13 C13        -0.7088   -3.3514   -1.0232 C.ar      1 <0>        -0.0559
     14 C14        -0.1549   -3.9534    0.2351 C.3       1 <0>        -0.0458
     15 C15        -0.6706   -3.2589    1.4644 C.ar      1 <0>        -0.0685
     16 C16        -1.1114   -1.9760    1.4251 C.ar      1 <0>        -0.0567
     17 C17        -1.5891   -1.3674    2.6044 C.ar      1 <0>        -0.0473
     18 C18        -2.0543   -0.0401    2.5914 C.ar      1 <0>        -0.0946
     19 C19        -2.5112    0.5241    3.7412 C.ar      1 <0>        -0.1344
     20 C20        -2.5260   -0.1961    4.9400 C.ar      1 <0>         0.1111
     21 C21        -2.0808   -1.4866    4.9875 C.ar      1 <0>        -0.1324
     22 C22        -1.6024   -2.0977    3.8169 C.ar      1 <0>        -0.0361
     23 C23        -1.1355   -3.4229    3.8220 C.ar      1 <0>        -0.1003
     24 C24        -0.6839   -3.9773    2.6668 C.ar      1 <0>        -0.1078
     25 O1         -2.9888    0.3958    6.0722 O.3       1 <0>        -0.5005
     26 O2         -1.3229   -4.3797   -4.4658 O.3       1 <0>        -0.4969
     27 O3          3.5625    1.9693   -0.0147 O.3       1 <0>        -0.3285
     28 C25         4.8117    1.2758    0.0102 C.3       1 <0>         0.0259
     29 C26         5.9580    2.2878   -0.0434 C.3       1 <0>        -0.0007
     30 N1          5.9254    3.1288    1.1606 N.4       1 <0>        -0.3840
     31 C27         6.9247    4.1968    1.0368 C.3       1 <0>        -0.0070
     32 C28         6.8396    5.1234    2.2516 C.3       1 <0>        -0.1467
     33 C29         7.1096    4.3145    3.5236 C.3       1 <0>        -0.1388
     34 C30         6.1082    3.1588    3.6040 C.3       1 <0>        -0.1455
     35 C31         6.2203    2.3050    2.3391 C.3       1 <0>        -0.0131
     36 H1         -0.9271    1.5194    0.0364 H         1 <0>         0.1350
     37 H2          1.1123    2.8954   -0.0434 H         1 <0>         0.1338
     38 H3          3.4990   -0.6467    0.1062 H         1 <0>         0.1263
     39 H4          1.4548   -2.0158    0.1812 H         1 <0>         0.1292
     40 H5         -1.9792   -0.5144    0.1527 H         1 <0>         0.1010
     41 H6         -2.0054   -0.5004   -2.2702 H         1 <0>         0.1275
     42 H7         -2.1071   -1.8825   -4.2997 H         1 <0>         0.1322
     43 H8         -0.4189   -5.1553   -2.1372 H         1 <0>         0.1317
     44 H9         -0.4356   -5.0057    0.2782 H         1 <0>         0.0939
     45 H10         0.9324   -3.8785    0.2153 H         1 <0>         0.0919
     46 H11        -2.0484    0.5281    1.6730 H         1 <0>         0.1299
     47 H12        -2.8682    1.5433    3.7284 H         1 <0>         0.1306
     48 H13        -2.0963   -2.0332    5.9189 H         1 <0>         0.1357
     49 H14        -1.1349   -3.9963    4.7373 H         1 <0>         0.1323
     50 H15        -0.3266   -4.9964    2.6754 H         1 <0>         0.1277
     51 H16        -3.9378    0.2795    6.2171 H         1 <0>         0.3951
     52 H17        -0.5279   -4.3328   -5.0143 H         1 <0>         0.3930
     53 H18         4.8850    0.6921    0.9278 H         1 <0>         0.0857
     54 H19         4.8746    0.6096   -0.8502 H         1 <0>         0.1086
     55 H20         6.9090    1.7574   -0.0905 H         1 <0>         0.1486
     56 H21         5.8477    2.9152   -0.9279 H         1 <0>         0.1424
     57 H22         7.9209    3.7574    0.9846 H         1 <0>         0.1290
     58 H23         6.7332    4.7695    0.1294 H         1 <0>         0.1309
     59 H24         7.5835    5.9146    2.1586 H         1 <0>         0.1131
     60 H25         5.8439    5.5635    2.3046 H         1 <0>         0.0880
     61 H26         8.1239    3.9165    3.4940 H         1 <0>         0.0820
     62 H27         6.9946    4.9579    4.3959 H         1 <0>         0.0948
     63 H28         6.3292    2.5457    4.4777 H         1 <0>         0.1123
     64 H29         5.0972    3.5581    3.6851 H         1 <0>         0.0880
     65 H30         5.5088    1.4810    2.3932 H         1 <0>         0.1271
     66 H31         7.2315    1.9059    2.2591 H         1 <0>         0.1301
     67 H32         5.0086    3.5385    1.2588 H         1 <0>         0.4295
@<TRIPOS>BOND
     1    1    6 ar
     2    1    2 ar
     3    1   36 1
     4    2    3 ar
     5    2   37 1
     6    3    4 ar
     7    3   27 1
     8    4    5 ar
     9    4   38 1
    10    5    6 ar
    11    5   39 1
    12    6    7 1
    13    7   16 1
    14    7    8 1
    15    7   40 1
    16    8   13 ar
    17    8    9 ar
    18    9   10 ar
    19    9   41 1
    20   10   11 ar
    21   10   42 1
    22   11   12 ar
    23   11   26 1
    24   12   13 ar
    25   12   43 1
    26   13   14 1
    27   14   15 1
    28   14   44 1
    29   14   45 1
    30   15   24 ar
    31   15   16 ar
    32   16   17 ar
    33   17   22 ar
    34   17   18 ar
    35   18   19 ar
    36   18   46 1
    37   19   20 ar
    38   19   47 1
    39   20   21 ar
    40   20   25 1
    41   21   22 ar
    42   21   48 1
    43   22   23 ar
    44   23   24 ar
    45   23   49 1
    46   24   50 1
    47   25   51 1
    48   26   52 1
    49   27   28 1
    50   28   29 1
    51   28   53 1
    52   28   54 1
    53   29   30 1
    54   29   55 1
    55   29   56 1
    56   30   35 1
    57   30   31 1
    58   30   67 1
    59   31   32 1
    60   31   57 1
    61   31   58 1
    62   32   33 1
    63   32   59 1
    64   32   60 1
    65   33   34 1
    66   33   61 1
    67   33   62 1
    68   34   35 1
    69   34   63 1
    70   34   64 1
    71   35   65 1
    72   35   66 1
