@<TRIPOS>MOLECULE
CHEMBL481189
   69    73     0     0     0
SMALL
USER_CHARGES

@<TRIPOS>ATOM
      1 C1          0.1400    1.5003   -0.0058 C.3       1 <0>        -0.0794
      2 C2          0.0722   -0.0051   -0.0051 C.2       1 <0>        -0.1881
      3 C3         -0.0903   -0.8272   -1.1331 C.2       1 <0>         0.1267
      4 N1         -0.1024   -2.0824   -0.7331 N.2       1 <0>        -0.2593
      5 N2          0.0514   -2.1050    0.6588 N.pl3     1 <0>        -0.3146
      6 C4          0.1636   -0.8136    1.0903 C.2       1 <0>         0.1108
      7 C5          0.3477   -0.3720    2.4903 C.ar      1 <0>        -0.0245
      8 C6          1.2841    0.6160    2.7958 C.ar      1 <0>        -0.0857
      9 C7          1.4507    1.0237    4.1034 C.ar      1 <0>        -0.1115
     10 C8          0.6914    0.4551    5.1104 C.ar      1 <0>        -0.0876
     11 C9         -0.2389   -0.5251    4.8139 C.ar      1 <0>        -0.1104
     12 C10        -0.4186   -0.9378    3.5097 C.ar      1 <0>        -0.0902
     13 C11         0.8788    0.9048    6.5365 C.3       1 <0>        -0.0745
     14 C12        -0.0661    2.0714    6.8316 C.3       1 <0>        -0.1449
     15 C13         0.1242    2.5281    8.2795 C.3       1 <0>        -0.0110
     16 N3         -0.7830    3.6482    8.5629 N.4       1 <0>        -0.3830
     17 C14        -0.4112    4.7994    7.7317 C.3       1 <0>        -0.0122
     18 C15        -1.4023    5.9420    7.9635 C.3       1 <0>        -0.1462
     19 C16        -1.3714    6.3455    9.4404 C.3       1 <0>        -0.1396
     20 C17        -1.6879    5.1191   10.3012 C.3       1 <0>        -0.1467
     21 C18        -0.6862    4.0071    9.9828 C.3       1 <0>        -0.0068
     22 C19         0.0892   -3.2500    1.4656 C.ar      1 <0>         0.1398
     23 C20         0.9026   -3.2804    2.5909 C.ar      1 <0>        -0.1073
     24 C21         0.9393   -4.4089    3.3853 C.ar      1 <0>        -0.1250
     25 C22         0.1642   -5.5127    3.0595 C.ar      1 <0>         0.1109
     26 C23        -0.6486   -5.4829    1.9354 C.ar      1 <0>        -0.1248
     27 C24        -0.6910   -4.3529    1.1435 C.ar      1 <0>        -0.0911
     28 O1          0.2016   -6.6238    3.8417 O.3       1 <0>        -0.4938
     29 C25        -0.2258   -0.3610   -2.5353 C.ar      1 <0>        -0.0312
     30 C26         0.5767    0.6763   -3.0069 C.ar      1 <0>        -0.0759
     31 C27         0.4485    1.1074   -4.3106 C.ar      1 <0>        -0.1452
     32 C28        -0.4790    0.5095   -5.1529 C.ar      1 <0>         0.1198
     33 C29        -1.2800   -0.5236   -4.6859 C.ar      1 <0>        -0.1448
     34 C30        -1.1517   -0.9635   -3.3850 C.ar      1 <0>        -0.0712
     35 O2         -0.6034    0.9367   -6.4368 O.3       1 <0>        -0.4989
     36 H1          1.1755    1.8174   -0.1294 H         1 <0>         0.0680
     37 H2         -0.4601    1.8907   -0.8278 H         1 <0>         0.0730
     38 H3         -0.2464    1.8819    0.9393 H         1 <0>         0.0637
     39 H4          1.8777    1.0604    2.0106 H         1 <0>         0.1334
     40 H5          2.1755    1.7882    4.3413 H         1 <0>         0.1286
     41 H6         -0.8283   -0.9654    5.6046 H         1 <0>         0.1266
     42 H7         -1.1483   -1.6998    3.2789 H         1 <0>         0.1245
     43 H8          0.6565    0.0777    7.2105 H         1 <0>         0.0847
     44 H9          1.9099    1.2263    6.6835 H         1 <0>         0.0850
     45 H10         0.1563    2.8986    6.1576 H         1 <0>         0.0897
     46 H11        -1.0972    1.7500    6.6846 H         1 <0>         0.0887
     47 H12        -0.0982    1.7009    8.9535 H         1 <0>         0.1316
     48 H13         1.1553    2.8495    8.4265 H         1 <0>         0.1303
     49 H14         0.5927    5.1302    7.9981 H         1 <0>         0.1284
     50 H15        -0.4305    4.5098    6.6810 H         1 <0>         0.1313
     51 H16        -1.1235    6.7964    7.3468 H         1 <0>         0.1118
     52 H17        -2.4066    5.6123    7.6971 H         1 <0>         0.0872
     53 H18        -0.3811    6.7234    9.6944 H         1 <0>         0.0817
     54 H19        -2.1162    7.1204    9.6222 H         1 <0>         0.0941
     55 H20        -1.6132    5.3854   11.3556 H         1 <0>         0.1121
     56 H21        -2.6981    4.7724   10.0834 H         1 <0>         0.0873
     57 H22        -0.9085    3.1324   10.5942 H         1 <0>         0.1297
     58 H23         0.3235    4.3547   10.2012 H         1 <0>         0.1281
     59 H24         1.5065   -2.4217    2.8442 H         1 <0>         0.1333
     60 H25         1.5718   -4.4327    4.2604 H         1 <0>         0.1390
     61 H26        -1.2514   -6.3425    1.6822 H         1 <0>         0.1420
     62 H27        -1.3271   -4.3282    0.2711 H         1 <0>         0.1397
     63 H28        -0.4502   -6.6241    4.5560 H         1 <0>         0.3944
     64 H29         1.2979    1.1423   -2.3519 H         1 <0>         0.1314
     65 H30         1.0701    1.9113   -4.6766 H         1 <0>         0.1353
     66 H31        -2.0012   -0.9864   -5.3432 H         1 <0>         0.1348
     67 H32        -1.7715   -1.7708   -3.0238 H         1 <0>         0.1302
     68 H33        -0.0301    0.4735   -7.0628 H         1 <0>         0.3958
     69 H34        -1.7306    3.3743    8.3501 H         1 <0>         0.4220
@<TRIPOS>BOND
     1    1    2 1
     2    1   36 1
     3    1   37 1
     4    1   38 1
     5    2    6 2
     6    2    3 1
     7    3    4 2
     8    3   29 1
     9    4    5 1
    10    5    6 1
    11    5   22 1
    12    6    7 1
    13    7   12 ar
    14    7    8 ar
    15    8    9 ar
    16    8   39 1
    17    9   10 ar
    18    9   40 1
    19   10   11 ar
    20   10   13 1
    21   11   12 ar
    22   11   41 1
    23   12   42 1
    24   13   14 1
    25   13   43 1
    26   13   44 1
    27   14   15 1
    28   14   45 1
    29   14   46 1
    30   15   16 1
    31   15   47 1
    32   15   48 1
    33   16   21 1
    34   16   17 1
    35   16   69 1
    36   17   18 1
    37   17   49 1
    38   17   50 1
    39   18   19 1
    40   18   51 1
    41   18   52 1
    42   19   20 1
    43   19   53 1
    44   19   54 1
    45   20   21 1
    46   20   55 1
    47   20   56 1
    48   21   57 1
    49   21   58 1
    50   22   27 ar
    51   22   23 ar
    52   23   24 ar
    53   23   59 1
    54   24   25 ar
    55   24   60 1
    56   25   26 ar
    57   25   28 1
    58   26   27 ar
    59   26   61 1
    60   27   62 1
    61   28   63 1
    62   29   34 ar
    63   29   30 ar
    64   30   31 ar
    65   30   64 1
    66   31   32 ar
    67   31   65 1
    68   32   33 ar
    69   32   35 1
    70   33   34 ar
    71   33   66 1
    72   34   67 1
    73   35   68 1
