@<TRIPOS>MOLECULE
CHEMBL196131
   63    68     0     0     0
SMALL
USER_CHARGES

@<TRIPOS>ATOM
      1 C1          0.0438    1.0466    0.0482 C.ar      1 <0>        -0.0552
      2 C2          1.1882    1.8192    0.0061 C.ar      1 <0>        -0.1398
      3 C3          2.4352    1.2115    0.0270 C.ar      1 <0>         0.1237
      4 C4          2.5294   -0.1712    0.0902 C.ar      1 <0>        -0.2005
      5 C5          1.3820   -0.9394    0.1320 C.ar      1 <0>        -0.0632
      6 C6          0.1404   -0.3313    0.1110 C.ar      1 <0>        -0.1352
      7 C7         -1.1097   -1.1716    0.1572 C.3       1 <0>         0.1478
      8 N1         -1.5231   -1.5075   -1.2075 N.pl3     1 <0>        -0.4679
      9 C8         -2.3726   -0.7457   -1.9809 C.ar      1 <0>         0.1321
     10 C9         -3.0426    0.4523   -1.7535 C.ar      1 <0>        -0.1199
     11 C10        -3.8445    0.9926   -2.7341 C.ar      1 <0>        -0.1036
     12 C11        -3.9947    0.3496   -3.9596 C.ar      1 <0>         0.0830
     13 C12        -3.3390   -0.8400   -4.2051 C.ar      1 <0>        -0.0877
     14 C13        -2.5217   -1.3978   -3.2181 C.ar      1 <0>        -0.0425
     15 C14        -1.7056   -2.6018   -3.1374 C.2       1 <0>        -0.1759
     16 C15        -1.1046   -2.6470   -1.9127 C.2       1 <0>         0.0951
     17 C16        -0.2267   -3.8029   -1.6500 C.ar      1 <0>        -0.0741
     18 C17         0.5016   -4.0796   -0.4695 C.ar      1 <0>        -0.0739
     19 C18         1.2748   -5.1941   -0.3758 C.ar      1 <0>        -0.1431
     20 C19         1.3773   -6.0975   -1.4309 C.ar      1 <0>         0.1373
     21 C20         0.6773   -5.8580   -2.6028 C.ar      1 <0>        -0.0970
     22 C21        -0.1083   -4.7289   -2.7029 C.ar      1 <0>        -0.0869
     23 S1         -1.1479   -4.0613   -3.9761 S.3       1 <0>         0.1202
     24 O1          2.1574   -7.2044   -1.3125 O.3       1 <0>        -0.4917
     25 O2         -4.7904    0.8952   -4.9181 O.3       1 <0>        -0.4933
     26 O3          3.5625    1.9693   -0.0147 O.3       1 <0>        -0.3271
     27 C22         4.8117    1.2758    0.0102 C.3       1 <0>         0.0249
     28 C23         5.9580    2.2878   -0.0434 C.3       1 <0>        -0.0007
     29 N2          5.9254    3.1288    1.1606 N.4       1 <0>        -0.3841
     30 C24         6.9247    4.1968    1.0368 C.3       1 <0>        -0.0073
     31 C25         6.8396    5.1234    2.2516 C.3       1 <0>        -0.1466
     32 C26         7.1096    4.3145    3.5236 C.3       1 <0>        -0.1391
     33 C27         6.1082    3.1588    3.6040 C.3       1 <0>        -0.1451
     34 C28         6.2203    2.3050    2.3391 C.3       1 <0>        -0.0133
     35 H1         -0.9271    1.5194    0.0364 H         1 <0>         0.1363
     36 H2          1.1123    2.8954   -0.0434 H         1 <0>         0.1366
     37 H3          3.4990   -0.6467    0.1062 H         1 <0>         0.1301
     38 H4          1.4548   -2.0158    0.1812 H         1 <0>         0.1330
     39 H5         -0.9110   -2.0882    0.7126 H         1 <0>         0.0981
     40 H6         -1.9050   -0.6130    0.6507 H         1 <0>         0.1037
     41 H7         -2.9338    0.9592   -0.8061 H         1 <0>         0.1273
     42 H8         -4.3616    1.9229   -2.5506 H         1 <0>         0.1385
     43 H9         -3.4572   -1.3379   -5.1562 H         1 <0>         0.1346
     44 H10         0.4432   -3.3981    0.3663 H         1 <0>         0.1252
     45 H11         1.8215   -5.3828    0.5363 H         1 <0>         0.1361
     46 H12         0.7466   -6.5488   -3.4301 H         1 <0>         0.1460
     47 H13         1.6943   -7.9760   -0.9587 H         1 <0>         0.3998
     48 H14        -4.3290    1.5004   -5.5148 H         1 <0>         0.3901
     49 H15         4.8850    0.6921    0.9278 H         1 <0>         0.0872
     50 H16         4.8746    0.6096   -0.8502 H         1 <0>         0.1098
     51 H17         6.9090    1.7574   -0.0905 H         1 <0>         0.1498
     52 H18         5.8477    2.9152   -0.9279 H         1 <0>         0.1430
     53 H19         7.9209    3.7574    0.9846 H         1 <0>         0.1295
     54 H20         6.7332    4.7695    0.1294 H         1 <0>         0.1312
     55 H21         7.5835    5.9146    2.1586 H         1 <0>         0.1134
     56 H22         5.8439    5.5635    2.3046 H         1 <0>         0.0879
     57 H23         8.1239    3.9165    3.4940 H         1 <0>         0.0823
     58 H24         6.9946    4.9579    4.3959 H         1 <0>         0.0950
     59 H25         6.3292    2.5457    4.4777 H         1 <0>         0.1124
     60 H26         5.0972    3.5581    3.6851 H         1 <0>         0.0877
     61 H27         5.5088    1.4810    2.3932 H         1 <0>         0.1267
     62 H28         7.2315    1.9059    2.2591 H         1 <0>         0.1306
     63 H29         5.0086    3.5385    1.2588 H         1 <0>         0.4291
@<TRIPOS>BOND
     1    1    6 ar
     2    1    2 ar
     3    1   35 1
     4    2    3 ar
     5    2   36 1
     6    3    4 ar
     7    3   26 1
     8    4    5 ar
     9    4   37 1
    10    5    6 ar
    11    5   38 1
    12    6    7 1
    13    7    8 1
    14    7   39 1
    15    7   40 1
    16    8   16 1
    17    8    9 1
    18    9   14 ar
    19    9   10 ar
    20   10   11 ar
    21   10   41 1
    22   11   12 ar
    23   11   42 1
    24   12   13 ar
    25   12   25 1
    26   13   14 ar
    27   13   43 1
    28   14   15 1
    29   15   23 1
    30   15   16 2
    31   16   17 1
    32   17   22 ar
    33   17   18 ar
    34   18   19 ar
    35   18   44 1
    36   19   20 ar
    37   19   45 1
    38   20   21 ar
    39   20   24 1
    40   21   22 ar
    41   21   46 1
    42   22   23 1
    43   24   47 1
    44   25   48 1
    45   26   27 1
    46   27   28 1
    47   27   49 1
    48   27   50 1
    49   28   29 1
    50   28   51 1
    51   28   52 1
    52   29   34 1
    53   29   30 1
    54   29   63 1
    55   30   31 1
    56   30   53 1
    57   30   54 1
    58   31   32 1
    59   31   55 1
    60   31   56 1
    61   32   33 1
    62   32   57 1
    63   32   58 1
    64   33   34 1
    65   33   59 1
    66   33   60 1
    67   34   61 1
    68   34   62 1
