@<TRIPOS>MOLECULE
CHEMBL264216
   66    71     0     0     0
SMALL
USER_CHARGES

@<TRIPOS>ATOM
      1 C1         -0.0167    1.3784    0.0096 C.ar      1 <0>        -0.0552
      2 C2          1.1695    2.0865    0.0021 C.ar      1 <0>        -0.1401
      3 C3          2.3802    1.4093   -0.0131 C.ar      1 <0>         0.1242
      4 C4          2.3963    0.0221   -0.0206 C.ar      1 <0>        -0.2006
      5 C5          1.2074   -0.6814   -0.0130 C.ar      1 <0>        -0.0631
      6 C6          0.0021   -0.0041    0.0020 C.ar      1 <0>        -0.1355
      7 C7         -1.2934   -0.7740    0.0107 C.3       1 <0>         0.1479
      8 N1         -1.7268   -1.0161   -1.3676 N.pl3     1 <0>        -0.4679
      9 C8         -2.5330   -0.1693   -2.0978 C.ar      1 <0>         0.1321
     10 C9         -3.1340    1.0514   -1.8070 C.ar      1 <0>        -0.1199
     11 C10        -3.9055    1.6853   -2.7556 C.ar      1 <0>        -0.1036
     12 C11        -4.0932    1.1150   -4.0115 C.ar      1 <0>         0.0829
     13 C12        -3.5061   -0.0956   -4.3199 C.ar      1 <0>        -0.0876
     14 C13        -2.7202   -0.7481   -3.3659 C.ar      1 <0>        -0.0425
     15 C14        -1.9733   -1.9987   -3.3498 C.2       1 <0>        -0.1760
     16 C15        -1.3742   -2.1399   -2.1315 C.2       1 <0>         0.0952
     17 C16        -0.5626   -3.3553   -1.9315 C.ar      1 <0>        -0.0740
     18 C17         0.1504   -3.7323   -0.7696 C.ar      1 <0>        -0.0739
     19 C18         0.8596   -4.8920   -0.7359 C.ar      1 <0>        -0.1432
     20 C19         0.9096   -5.7448   -1.8359 C.ar      1 <0>         0.1373
     21 C20         0.2227   -5.4068   -2.9912 C.ar      1 <0>        -0.0971
     22 C21        -0.4981   -4.2317   -3.0306 C.ar      1 <0>        -0.0869
     23 S1         -1.4999   -3.4426   -4.2639 S.3       1 <0>         0.1202
     24 O1          1.6262   -6.8984   -1.7771 O.3       1 <0>        -0.4917
     25 O2         -4.8581    1.7526   -4.9378 O.3       1 <0>        -0.4934
     26 O3          3.5484    2.1036   -0.0209 O.3       1 <0>        -0.3258
     27 C22         4.7565    1.3405   -0.0365 C.3       1 <0>         0.0246
     28 C23         5.9580    2.2878   -0.0434 C.3       1 <0>        -0.0003
     29 N2          5.9923    3.0443    1.2153 N.4       1 <0>        -0.3789
     30 C24         6.2683    2.1506    2.3168 C.3       1 <0>        -0.0250
     31 C25         5.4854    2.5590    3.5765 C.3       1 <0>        -0.1437
     32 C26         5.4620    4.0848    3.7932 C.3       1 <0>        -0.1424
     33 C27         6.7909    4.7439    3.5314 C.3       1 <0>        -0.1341
     34 C28         6.8567    5.1866    2.0497 C.3       1 <0>        -0.1571
     35 C29         7.0744    4.0432    1.1686 C.3       1 <0>        -0.0024
     36 H1         -0.9594    1.9052    0.0259 H         1 <0>         0.1362
     37 H2          1.1543    3.1664    0.0076 H         1 <0>         0.1364
     38 H3          3.3375   -0.5074   -0.0328 H         1 <0>         0.1298
     39 H4          1.2194   -1.7613   -0.0189 H         1 <0>         0.1328
     40 H5         -1.1460   -1.7274    0.5180 H         1 <0>         0.0980
     41 H6         -2.0553   -0.1973    0.5352 H         1 <0>         0.1036
     42 H7         -2.9956    1.5025   -0.8355 H         1 <0>         0.1273
     43 H8         -4.3690    2.6326   -2.5229 H         1 <0>         0.1385
     44 H9         -3.6534   -0.5369   -5.2945 H         1 <0>         0.1346
     45 H10         0.1317   -3.0921    0.0999 H         1 <0>         0.1252
     46 H11         1.3960   -5.1573    0.1632 H         1 <0>         0.1360
     47 H12         0.2519   -6.0574   -3.8528 H         1 <0>         0.1460
     48 H13         1.1207   -7.6597   -1.4610 H         1 <0>         0.3998
     49 H14        -4.3641    2.3605   -5.5048 H         1 <0>         0.3901
     50 H15         4.7979    0.7076    0.8500 H         1 <0>         0.0873
     51 H16         4.7806    0.7165   -0.9299 H         1 <0>         0.1108
     52 H17         6.8762    1.7093   -0.1448 H         1 <0>         0.1515
     53 H18         5.8702    2.9798   -0.8810 H         1 <0>         0.1438
     54 H19         5.9853    1.1369    2.0335 H         1 <0>         0.1259
     55 H20         7.3357    2.1740    2.5366 H         1 <0>         0.1313
     56 H21         4.4600    2.2007    3.4853 H         1 <0>         0.0878
     57 H22         5.9450    2.0872    4.4450 H         1 <0>         0.1071
     58 H23         4.7177    4.5213    3.1271 H         1 <0>         0.0655
     59 H24         5.1678    4.2875    4.8229 H         1 <0>         0.0917
     60 H25         6.8985    5.6156    4.1770 H         1 <0>         0.0909
     61 H26         7.5947    4.0368    3.7362 H         1 <0>         0.0779
     62 H27         5.9192    5.6727    1.7798 H         1 <0>         0.0875
     63 H28         7.6750    5.8956    1.9243 H         1 <0>         0.1181
     64 H29         8.0086    3.5582    1.4517 H         1 <0>         0.1286
     65 H30         7.1699    4.4055    0.1450 H         1 <0>         0.1273
     66 H31         5.1069    3.5056    1.3614 H         1 <0>         0.4298
@<TRIPOS>BOND
     1    1    6 ar
     2    1    2 ar
     3    1   36 1
     4    2    3 ar
     5    2   37 1
     6    3    4 ar
     7    3   26 1
     8    4    5 ar
     9    4   38 1
    10    5    6 ar
    11    5   39 1
    12    6    7 1
    13    7    8 1
    14    7   40 1
    15    7   41 1
    16    8   16 1
    17    8    9 1
    18    9   14 ar
    19    9   10 ar
    20   10   11 ar
    21   10   42 1
    22   11   12 ar
    23   11   43 1
    24   12   13 ar
    25   12   25 1
    26   13   14 ar
    27   13   44 1
    28   14   15 1
    29   15   23 1
    30   15   16 2
    31   16   17 1
    32   17   22 ar
    33   17   18 ar
    34   18   19 ar
    35   18   45 1
    36   19   20 ar
    37   19   46 1
    38   20   21 ar
    39   20   24 1
    40   21   22 ar
    41   21   47 1
    42   22   23 1
    43   24   48 1
    44   25   49 1
    45   26   27 1
    46   27   28 1
    47   27   50 1
    48   27   51 1
    49   28   29 1
    50   28   52 1
    51   28   53 1
    52   29   35 1
    53   29   30 1
    54   29   66 1
    55   30   31 1
    56   30   54 1
    57   30   55 1
    58   31   32 1
    59   31   56 1
    60   31   57 1
    61   32   33 1
    62   32   58 1
    63   32   59 1
    64   33   34 1
    65   33   60 1
    66   33   61 1
    67   34   35 1
    68   34   62 1
    69   34   63 1
    70   35   64 1
    71   35   65 1
