@<TRIPOS>MOLECULE
CHEMBL597498
   53    57     0     0     0
SMALL
USER_CHARGES

@<TRIPOS>ATOM
      1 C1         -0.0187    1.5258    0.0104 C.3       1 <0>        -0.1376
      2 C2          0.0021   -0.0041    0.0020 C.3       1 <0>        -0.0401
      3 C3         -1.4064   -0.5323    0.1772 C.3       1 <0>        -0.0999
      4 C4         -1.9756    0.0797    1.4714 C.3       1 <0>        -0.1114
      5 C5         -1.0851   -0.2532    2.6598 C.3       1 <0>        -0.0422
      6 H1         -1.0806   -1.3360    2.7843 H         1 <0>         0.0780
      7 C6         -1.6005    0.3571    3.9311 C.ar      1 <0>        -0.0754
      8 C7         -2.9742    0.4710    4.0964 C.ar      1 <0>        -0.1037
      9 C8         -3.5002    1.0150    5.2487 C.ar      1 <0>        -0.1476
     10 C9         -2.6480    1.4512    6.2530 C.ar      1 <0>         0.1012
     11 C10        -1.2787    1.3413    6.0863 C.ar      1 <0>        -0.1479
     12 C11        -0.7495    0.7994    4.9225 C.ar      1 <0>        -0.0571
     13 C12         0.7502    0.7384    4.8002 C.3       1 <0>        -0.0822
     14 C13         1.1786   -0.1827    3.6588 C.3       1 <0>        -0.1135
     15 C14         0.3612    0.2021    2.4252 C.3       1 <0>        -0.0736
     16 H2          0.3879    1.2814    2.2748 H         1 <0>         0.0852
     17 C15         0.8604   -0.5199    1.1907 C.3       1 <0>        -0.0810
     18 H3          0.7388   -1.5961    1.3133 H         1 <0>         0.0913
     19 C16         2.2767   -0.1707    0.7204 C.3       1 <0>        -0.1090
     20 C17         2.2489   -0.5546   -0.7844 C.3       1 <0>        -0.1404
     21 C18         0.7638   -0.4984   -1.2221 C.3       1 <0>         0.2280
     22 C19         0.2833   -1.8711   -1.6170 C.2       1 <0>        -0.0366
     23 C20        -0.2645   -2.2275   -2.8023 C.2       1 <0>        -0.0448
     24 N1         -0.5414   -3.5486   -2.7076 N.pl3     1 <0>        -0.2927
     25 N2         -0.1813   -3.9535   -1.5400 N.2       1 <0>        -0.0838
     26 N3          0.3198   -2.9783   -0.8672 N.2       1 <0>        -0.2501
     27 C21        -1.1473   -4.3758   -3.7539 C.3       1 <0>         0.0794
     28 O1          0.6019    0.4156   -2.3086 O.3       1 <0>        -0.5412
     29 O2         -3.1559    1.9835    7.3956 O.3       1 <0>        -0.5007
     30 H4          1.0033    1.9032   -0.0250 H         1 <0>         0.0570
     31 H5         -0.5695    1.8864   -0.8582 H         1 <0>         0.0614
     32 H6         -0.5045    1.8775    0.9205 H         1 <0>         0.0628
     33 H7         -2.0207   -0.2365   -0.6732 H         1 <0>         0.0612
     34 H8         -1.3862   -1.6190    0.2597 H         1 <0>         0.0669
     35 H9         -2.0364    1.1623    1.3603 H         1 <0>         0.0701
     36 H10        -2.9745   -0.3191    1.6483 H         1 <0>         0.0632
     37 H11        -3.6371    0.1306    3.3147 H         1 <0>         0.1267
     38 H12        -4.5700    1.1016    5.3689 H         1 <0>         0.1266
     39 H13        -0.6155    1.6804    6.8684 H         1 <0>         0.1257
     40 H14         1.1338    1.7413    4.6125 H         1 <0>         0.0773
     41 H15         1.1695    0.3666    5.7351 H         1 <0>         0.0743
     42 H16         2.2408   -0.0469    3.4558 H         1 <0>         0.0724
     43 H17         0.9854   -1.2202    3.9313 H         1 <0>         0.0672
     44 H18         2.4720    0.8946    0.8429 H         1 <0>         0.0715
     45 H19         3.0180   -0.7638    1.2560 H         1 <0>         0.0693
     46 H20         2.8367    0.1577   -1.3632 H         1 <0>         0.0760
     47 H21         2.6412   -1.5624   -0.9207 H         1 <0>         0.0715
     48 H22        -0.4450   -1.5862   -3.6524 H         1 <0>         0.1898
     49 H23        -0.3631   -4.8030   -4.3790 H         1 <0>         0.0926
     50 H24        -1.7233   -5.1789   -3.2942 H         1 <0>         0.1029
     51 H25        -1.8062   -3.7610   -4.3671 H         1 <0>         0.0996
     52 H26         1.0650    0.1529   -3.1159 H         1 <0>         0.3739
     53 H27        -3.3226    1.3338    8.0921 H         1 <0>         0.3896
@<TRIPOS>BOND
     1    1    2 1
     2    1   30 1
     3    1   31 1
     4    1   32 1
     5    2   17 1
     6    2   21 1
     7    2    3 1
     8    3    4 1
     9    3   33 1
    10    3   34 1
    11    4    5 1
    12    4   35 1
    13    4   36 1
    14    5    6 1
    15    5   15 1
    16    5    7 1
    17    7   12 ar
    18    7    8 ar
    19    8    9 ar
    20    8   37 1
    21    9   10 ar
    22    9   38 1
    23   10   11 ar
    24   10   29 1
    25   11   12 ar
    26   11   39 1
    27   12   13 1
    28   13   14 1
    29   13   40 1
    30   13   41 1
    31   14   15 1
    32   14   42 1
    33   14   43 1
    34   15   16 1
    35   15   17 1
    36   17   18 1
    37   17   19 1
    38   19   20 1
    39   19   44 1
    40   19   45 1
    41   20   21 1
    42   20   46 1
    43   20   47 1
    44   21   22 1
    45   21   28 1
    46   22   26 1
    47   22   23 2
    48   23   24 1
    49   23   48 1
    50   24   25 1
    51   24   27 1
    52   25   26 2
    53   27   49 1
    54   27   50 1
    55   27   51 1
    56   28   52 1
    57   29   53 1
