@<TRIPOS>MOLECULE
CHEMBL1098710
   71    76     0     0     0
SMALL
USER_CHARGES

@<TRIPOS>ATOM
      1 C1         -1.7132    0.0400   -1.9434 C.3       1 <0>        -0.1539
      2 C2         -1.2129   -1.3992   -2.0834 C.3       1 <0>         0.0592
      3 O1          0.0709   -1.3983   -2.7109 O.3       1 <0>        -0.3446
      4 C3          0.6533   -2.5913   -2.9088 C.2       1 <0>         0.4829
      5 O2          0.0916   -3.6029   -2.5609 O.2       1 <0>        -0.4750
      6 C4          2.0077   -2.6691   -3.5651 C.3       1 <0>         0.0502
      7 C5          3.0928   -2.0499   -2.6588 C.3       1 <0>        -0.0622
      8 C6          3.6301   -3.2035   -1.8393 C.ar      1 <0>        -0.1044
      9 C7          4.3711   -3.2048   -0.6692 C.ar      1 <0>        -0.0950
     10 C8          4.7559   -4.3987   -0.0915 C.ar      1 <0>        -0.1082
     11 C9          4.4008   -5.5971   -0.6824 C.ar      1 <0>        -0.0937
     12 C10         3.6619   -5.5979   -1.8492 C.ar      1 <0>        -0.0861
     13 C11         3.2751   -4.4016   -2.4301 C.ar      1 <0>        -0.0853
     14 C12         2.4749   -4.1350   -3.6870 C.3       1 <0>        -0.0628
     15 C13         4.8199   -6.9012   -0.0542 C.3       1 <0>         0.1843
     16 C14         4.6375   -6.8398    1.4831 C.3       1 <0>        -0.1491
     17 C15         6.0590   -6.9579    2.0977 C.3       1 <0>        -0.1146
     18 C16         6.9656   -6.4650    0.9644 C.3       1 <0>        -0.0849
     19 H1          6.9173   -5.3792    0.8815 H         1 <0>         0.0801
     20 C17         6.3096   -7.1384   -0.2733 C.3       1 <0>        -0.0402
     21 C18         6.9234   -6.5317   -1.5175 C.3       1 <0>        -0.1000
     22 C19         8.4217   -6.8905   -1.5211 C.3       1 <0>        -0.1136
     23 C20         9.0951   -6.3981   -0.2484 C.3       1 <0>        -0.0414
     24 H2          9.0173   -5.3112   -0.2256 H         1 <0>         0.0754
     25 C21         8.4066   -6.9288    1.0175 C.3       1 <0>        -0.0738
     26 H3          8.4432   -8.0182    1.0143 H         1 <0>         0.0843
     27 C22         9.1390   -6.3706    2.2378 C.3       1 <0>        -0.1116
     28 C23        10.5120   -7.0370    2.3167 C.3       1 <0>        -0.0815
     29 C24        11.2148   -7.0015    0.9851 C.ar      1 <0>        -0.0582
     30 C25        10.5521   -6.7584   -0.2112 C.ar      1 <0>        -0.0766
     31 C26        11.2571   -6.7678   -1.4068 C.ar      1 <0>        -0.1031
     32 C27        12.5993   -7.0834   -1.4286 C.ar      1 <0>        -0.1463
     33 C28        13.2506   -7.3936   -0.2438 C.ar      1 <0>         0.1031
     34 C29        12.5742   -7.2825    0.9675 C.ar      1 <0>        -0.1503
     35 O3         14.5741   -7.7019   -0.2531 O.3       1 <0>        -0.5013
     36 C30         6.5985   -8.6408   -0.2528 C.3       1 <0>        -0.1387
     37 O4          4.0606   -7.9807   -0.6022 O.3       1 <0>        -0.5453
     38 C31         1.9860   -2.0154   -4.8838 C.1       1 <0>         0.2127
     39 N1          1.9692   -1.5109   -5.9015 N.1       1 <0>        -0.3835
     40 H4         -1.0118    0.6109   -1.3349 H         1 <0>         0.0688
     41 H5         -1.7917    0.4950   -2.9307 H         1 <0>         0.0678
     42 H6         -2.6925    0.0393   -1.4648 H         1 <0>         0.0834
     43 H7         -1.1344   -1.8542   -1.0960 H         1 <0>         0.0733
     44 H8         -1.9143   -1.9701   -2.6919 H         1 <0>         0.0716
     45 H9          3.8874   -1.6135   -3.2641 H         1 <0>         0.1077
     46 H10         2.6549   -1.2943   -2.0066 H         1 <0>         0.1007
     47 H11         4.6492   -2.2690   -0.2073 H         1 <0>         0.1249
     48 H12         5.3340   -4.3962    0.8207 H         1 <0>         0.1297
     49 H13         3.3849   -6.5344   -2.3102 H         1 <0>         0.1308
     50 H14         1.6151   -4.8032   -3.7368 H         1 <0>         0.1090
     51 H15         3.1033   -4.2596   -4.5689 H         1 <0>         0.1053
     52 H16         4.1842   -5.8905    1.7684 H         1 <0>         0.0737
     53 H17         4.0144   -7.6685    1.8193 H         1 <0>         0.0762
     54 H18         6.1545   -6.3171    2.9743 H         1 <0>         0.0687
     55 H19         6.2852   -7.9940    2.3496 H         1 <0>         0.0733
     56 H20         6.4426   -6.9429   -2.4051 H         1 <0>         0.0672
     57 H21         6.8027   -5.4486   -1.4989 H         1 <0>         0.0660
     58 H22         8.5317   -7.9728   -1.5900 H         1 <0>         0.0710
     59 H23         8.9002   -6.4260   -2.3834 H         1 <0>         0.0655
     60 H24         9.2591   -5.2923    2.1332 H         1 <0>         0.0657
     61 H25         8.5704   -6.5920    3.1410 H         1 <0>         0.0723
     62 H26        11.1202   -6.5149    3.0553 H         1 <0>         0.0753
     63 H27        10.3879   -8.0745    2.6271 H         1 <0>         0.0778
     64 H28        10.7495   -6.5259   -2.3290 H         1 <0>         0.1274
     65 H29        13.1404   -7.0893   -2.3632 H         1 <0>         0.1273
     66 H30        13.0861   -7.5076    1.8914 H         1 <0>         0.1267
     67 H31        15.1567   -6.9381   -0.1421 H         1 <0>         0.3894
     68 H32         6.0534   -9.1266   -1.0621 H         1 <0>         0.0637
     69 H33         7.6677   -8.8070   -0.3838 H         1 <0>         0.0617
     70 H34         6.2801   -9.0590    0.7021 H         1 <0>         0.0552
     71 H35         3.1059   -7.8944   -0.4749 H         1 <0>         0.3760
@<TRIPOS>BOND
     1    1    2 1
     2    1   40 1
     3    1   41 1
     4    1   42 1
     5    2    3 1
     6    2   43 1
     7    2   44 1
     8    3    4 1
     9    4    5 2
    10    4    6 1
    11    6   14 1
    12    6    7 1
    13    6   38 1
    14    7    8 1
    15    7   45 1
    16    7   46 1
    17    8   13 ar
    18    8    9 ar
    19    9   10 ar
    20    9   47 1
    21   10   11 ar
    22   10   48 1
    23   11   12 ar
    24   11   15 1
    25   12   13 ar
    26   12   49 1
    27   13   14 1
    28   14   50 1
    29   14   51 1
    30   15   20 1
    31   15   16 1
    32   15   37 1
    33   16   17 1
    34   16   52 1
    35   16   53 1
    36   17   18 1
    37   17   54 1
    38   17   55 1
    39   18   19 1
    40   18   25 1
    41   18   20 1
    42   20   21 1
    43   20   36 1
    44   21   22 1
    45   21   56 1
    46   21   57 1
    47   22   23 1
    48   22   58 1
    49   22   59 1
    50   23   24 1
    51   23   30 1
    52   23   25 1
    53   25   26 1
    54   25   27 1
    55   27   28 1
    56   27   60 1
    57   27   61 1
    58   28   29 1
    59   28   62 1
    60   28   63 1
    61   29   34 ar
    62   29   30 ar
    63   30   31 ar
    64   31   32 ar
    65   31   64 1
    66   32   33 ar
    67   32   65 1
    68   33   34 ar
    69   33   35 1
    70   34   66 1
    71   35   67 1
    72   36   68 1
    73   36   69 1
    74   36   70 1
    75   37   71 1
    76   38   39 3
