@<TRIPOS>MOLECULE
CHEMBL65929
   50    54     0     0     0
SMALL
USER_CHARGES

@<TRIPOS>ATOM
      1 C1         -0.1808    2.0490    0.2015 C.3       1 <0>        -0.1315
      2 C2         -0.2837    0.5659   -0.0596 C.2       1 <0>        -0.0538
      3 C3         -0.5176    0.1904   -1.3165 C.2       1 <0>        -0.1606
      4 C4         -0.7297   -1.2405   -1.7144 C.3       1 <0>         0.2151
      5 N1         -0.2067   -2.1503   -0.6971 N.pl3     1 <0>        -0.7322
      6 C5         -0.2018   -1.7944    0.6464 C.ar      1 <0>         0.2275
      7 C6         -0.1309   -0.4279    1.0089 C.ar      1 <0>        -0.0334
      8 C7          0.1430   -0.1332    2.3387 C.ar      1 <0>        -0.0356
      9 C8         -0.1521   -1.1159    3.3342 C.ar      1 <0>        -0.0897
     10 C9         -0.3194   -2.4345    2.9646 C.ar      1 <0>        -0.0536
     11 C10        -0.2854   -2.7736    1.6223 C.ar      1 <0>        -0.1733
     12 C11        -0.2711   -0.6481    4.7328 C.ar      1 <0>        -0.0626
     13 C12        -0.5592   -1.5412    5.7602 C.ar      1 <0>        -0.1171
     14 C13        -0.6712   -1.0838    7.0614 C.ar      1 <0>         0.0843
     15 C14        -0.5008    0.2613    7.3435 C.ar      1 <0>        -0.1216
     16 C15        -0.2116    1.1561    6.3290 C.ar      1 <0>        -0.0981
     17 C16        -0.0889    0.7108    5.0241 C.ar      1 <0>         0.1015
     18 O1          0.2197    1.5932    4.0319 O.3       1 <0>        -0.2282
     19 C17         0.7816    1.0594    2.8964 C.2       1 <0>         0.1962
     20 C18         1.9264    1.5788    2.3916 C.2       1 <0>        -0.1759
     21 S1          2.8265    0.7491    1.1111 S.3       1 <0>        -0.0748
     22 C19         3.1074    2.0700   -0.1042 C.3       1 <0>        -0.1248
     23 C20         3.8412    3.2321    0.5578 C.3       1 <0>        -0.1268
     24 C21         2.9028    4.0348    1.4536 C.3       1 <0>        -0.1132
     25 S2          2.5767    3.1174    2.9815 S.3       1 <0>        -0.1018
     26 F1         -0.9453   -1.9522    8.0597 F         1 <0>        -0.1350
     27 C22        -2.2300   -1.4960   -1.9008 C.3       1 <0>        -0.1607
     28 C23        -0.0155   -1.5053   -3.0450 C.3       1 <0>        -0.1546
     29 H1          0.7682    2.2667    0.6915 H         1 <0>         0.0689
     30 H2         -0.2339    2.5888   -0.7439 H         1 <0>         0.0677
     31 H3         -1.0025    2.3624    0.8454 H         1 <0>         0.0719
     32 H4         -0.5523    0.9592   -2.0819 H         1 <0>         0.1262
     33 H5          0.1463   -3.0239   -0.9645 H         1 <0>         0.4058
     34 H6         -0.4755   -3.1990    3.7106 H         1 <0>         0.1348
     35 H7         -0.3243   -3.8136    1.3307 H         1 <0>         0.1318
     36 H8         -0.6960   -2.5904    5.5446 H         1 <0>         0.1442
     37 H9         -0.5944    0.6134    8.3597 H         1 <0>         0.1482
     38 H10        -0.0825    2.2044    6.5557 H         1 <0>         0.1491
     39 H11         3.7084    1.6835   -0.9273 H         1 <0>         0.1169
     40 H12         2.1489    2.4185   -0.4888 H         1 <0>         0.0938
     41 H13         4.6619    2.8408    1.1591 H         1 <0>         0.0917
     42 H14         4.2452    3.8865   -0.2145 H         1 <0>         0.0887
     43 H15         3.3640    4.9922    1.6961 H         1 <0>         0.1203
     44 H16         1.9626    4.2084    0.9303 H         1 <0>         0.0874
     45 H17        -2.6164   -0.8389   -2.6800 H         1 <0>         0.0668
     46 H18        -2.3885   -2.5349   -2.1900 H         1 <0>         0.0620
     47 H19        -2.7517   -1.2957   -0.9649 H         1 <0>         0.0571
     48 H20         1.0510   -1.3121   -2.9297 H         1 <0>         0.0637
     49 H21        -0.1669   -2.5442   -3.3382 H         1 <0>         0.0639
     50 H22        -0.4229   -0.8480   -3.8132 H         1 <0>         0.0734
@<TRIPOS>BOND
     1    1    2 1
     2    1   29 1
     3    1   30 1
     4    1   31 1
     5    2    7 1
     6    2    3 2
     7    3    4 1
     8    3   32 1
     9    4    5 1
    10    4   27 1
    11    4   28 1
    12    5    6 1
    13    5   33 1
    14    6   11 ar
    15    6    7 ar
    16    7    8 ar
    17    8   19 1
    18    8    9 ar
    19    9   10 ar
    20    9   12 1
    21   10   11 ar
    22   10   34 1
    23   11   35 1
    24   12   17 ar
    25   12   13 ar
    26   13   14 ar
    27   13   36 1
    28   14   15 ar
    29   14   26 1
    30   15   16 ar
    31   15   37 1
    32   16   17 ar
    33   16   38 1
    34   17   18 1
    35   18   19 1
    36   19   20 2
    37   20   25 1
    38   20   21 1
    39   21   22 1
    40   22   23 1
    41   22   39 1
    42   22   40 1
    43   23   24 1
    44   23   41 1
    45   23   42 1
    46   24   25 1
    47   24   43 1
    48   24   44 1
    49   27   45 1
    50   27   46 1
    51   27   47 1
    52   28   48 1
    53   28   49 1
    54   28   50 1
