@<TRIPOS>MOLECULE
CHEMBL122208
   55    58     0     0     0
SMALL
USER_CHARGES

@<TRIPOS>ATOM
      1 C1          0.0996    1.3111    0.6945 C.ar      1 <0>        -0.0792
      2 C2          1.2919    2.0033    0.7831 C.ar      1 <0>        -0.1395
      3 C3          2.4673    1.4180    0.3354 C.ar      1 <0>         0.1226
      4 C4          2.4421    0.1385   -0.2003 C.ar      1 <0>        -0.1441
      5 C5          1.2473   -0.5495   -0.2867 C.ar      1 <0>        -0.0942
      6 C6          0.0772    0.0361    0.1602 C.ar      1 <0>        -0.0913
      7 C7         -1.2248   -0.7169    0.0652 C.3       1 <0>        -0.0669
      8 H1         -2.0619   -0.0252    0.1594 H         1 <0>         0.1206
      9 C8         -1.2969   -1.7821    1.1721 C.3       1 <0>         0.1077
     10 H2         -1.1340   -1.3117    2.1418 H         1 <0>         0.1373
     11 O1         -2.5798   -2.3890    1.1484 O.3       1 <0>        -0.3092
     12 C9         -3.0485   -3.0330    0.0538 C.ar      1 <0>         0.1131
     13 C10        -4.0362   -3.9962    0.2461 C.ar      1 <0>        -0.1171
     14 C11        -4.5696   -4.6805   -0.8266 C.ar      1 <0>        -0.1097
     15 C12        -4.1276   -4.4148   -2.1143 C.ar      1 <0>         0.1003
     16 C13        -3.1419   -3.4626   -2.3174 C.ar      1 <0>        -0.0905
     17 C14        -2.5990   -2.7793   -1.2372 C.ar      1 <0>        -0.1477
     18 S1         -1.3202   -1.5944   -1.5271 S.3       1 <0>        -0.0808
     19 O2         -4.6585   -5.0853   -3.1714 O.3       1 <0>        -0.4940
     20 C15        -0.2220   -2.8439    0.9313 C.3       1 <0>        -0.1662
     21 C16        -0.2269   -3.8459    2.0875 C.3       1 <0>        -0.1443
     22 C17         0.8480   -4.9078    1.8467 C.3       1 <0>        -0.0097
     23 N1          0.8433   -5.8698    2.9568 N.4       1 <0>        -0.3823
     24 C18         1.2316   -5.1862    4.1964 C.3       1 <0>        -0.0120
     25 C19         1.1500   -6.1647    5.3700 C.3       1 <0>        -0.1459
     26 C20         2.0982   -7.3398    5.1146 C.3       1 <0>        -0.1393
     27 C21         1.7306   -7.9995    3.7824 C.3       1 <0>        -0.1464
     28 C22         1.7906   -6.9530    2.6676 C.3       1 <0>        -0.0072
     29 O3          3.6414    2.0970    0.4210 O.3       1 <0>        -0.4958
     30 H3         -0.8150    1.7646    1.0470 H         1 <0>         0.1330
     31 H4          1.3088    2.9994    1.2002 H         1 <0>         0.1373
     32 H5          3.3558   -0.3191   -0.5498 H         1 <0>         0.1342
     33 H6          1.2272   -1.5455   -0.7036 H         1 <0>         0.1363
     34 H7         -4.3876   -4.2098    1.2447 H         1 <0>         0.1386
     35 H8         -5.3337   -5.4260   -0.6630 H         1 <0>         0.1416
     36 H9         -2.7946   -3.2516   -3.3180 H         1 <0>         0.1399
     37 H10        -5.4321   -4.6558   -3.5613 H         1 <0>         0.3980
     38 H11        -0.4298   -3.3659   -0.0028 H         1 <0>         0.0957
     39 H12         0.7550   -2.3645    0.8701 H         1 <0>         0.1040
     40 H13        -0.0192   -3.3239    3.0215 H         1 <0>         0.0898
     41 H14        -1.2039   -4.3253    2.1487 H         1 <0>         0.0919
     42 H15         0.6402   -5.4298    0.9127 H         1 <0>         0.1313
     43 H16         1.8250   -4.4284    1.7855 H         1 <0>         0.1304
     44 H17         2.2527   -4.8166    4.1024 H         1 <0>         0.1280
     45 H18         0.5578   -4.3483    4.3750 H         1 <0>         0.1307
     46 H19         1.4404   -5.6558    6.2891 H         1 <0>         0.1117
     47 H20         0.1292   -6.5348    5.4651 H         1 <0>         0.0875
     48 H21         3.1250   -6.9767    5.0704 H         1 <0>         0.0815
     49 H22         2.0021   -8.0675    5.9205 H         1 <0>         0.0943
     50 H23         2.4360   -8.8020    3.5667 H         1 <0>         0.1123
     51 H24         0.7218   -8.4076    3.8445 H         1 <0>         0.0876
     52 H25         1.5296   -7.4194    1.7176 H         1 <0>         0.1298
     53 H26         2.7998   -6.5457    2.6062 H         1 <0>         0.1281
     54 H27         4.1186    1.9545    1.2499 H         1 <0>         0.3959
     55 H28        -0.0835   -6.2544    3.0633 H         1 <0>         0.4224
@<TRIPOS>BOND
     1    1    6 ar
     2    1    2 ar
     3    1   30 1
     4    2    3 ar
     5    2   31 1
     6    3    4 ar
     7    3   29 1
     8    4    5 ar
     9    4   32 1
    10    5    6 ar
    11    5   33 1
    12    6    7 1
    13    7    8 1
    14    7   18 1
    15    7    9 1
    16    9   10 1
    17    9   11 1
    18    9   20 1
    19   11   12 1
    20   12   17 ar
    21   12   13 ar
    22   13   14 ar
    23   13   34 1
    24   14   15 ar
    25   14   35 1
    26   15   16 ar
    27   15   19 1
    28   16   17 ar
    29   16   36 1
    30   17   18 1
    31   19   37 1
    32   20   21 1
    33   20   38 1
    34   20   39 1
    35   21   22 1
    36   21   40 1
    37   21   41 1
    38   22   23 1
    39   22   42 1
    40   22   43 1
    41   23   28 1
    42   23   24 1
    43   23   55 1
    44   24   25 1
    45   24   44 1
    46   24   45 1
    47   25   26 1
    48   25   46 1
    49   25   47 1
    50   26   27 1
    51   26   48 1
    52   26   49 1
    53   27   28 1
    54   27   50 1
    55   27   51 1
    56   28   52 1
    57   28   53 1
    58   29   54 1
