@<TRIPOS>MOLECULE
CHEMBL150492
   63    67     0     0     0
SMALL
USER_CHARGES

@<TRIPOS>ATOM
      1 C1         -1.5653   -1.0545    3.5568 C.ar      1 <0>        -0.0734
      2 C2         -1.1913   -1.3779    4.8424 C.ar      1 <0>        -0.1438
      3 C3         -0.8579   -2.6883    5.1624 C.ar      1 <0>         0.1254
      4 C4         -0.9000   -3.6782    4.1882 C.ar      1 <0>        -0.1418
      5 C5         -1.2727   -3.3641    2.8999 C.ar      1 <0>        -0.0719
      6 C6         -1.6090   -2.0471    2.5732 C.ar      1 <0>        -0.0410
      7 C7         -2.0087   -1.7059    1.1958 C.2       1 <0>        -0.0551
      8 C8         -1.3869   -2.0605    0.0057 C.2       1 <0>        -0.1601
      9 C9         -1.9855   -1.5929   -1.2470 C.ar      1 <0>        -0.0731
     10 C10        -1.5382   -1.8230   -2.5677 C.ar      1 <0>        -0.0598
     11 C11        -2.2200   -1.3081   -3.6387 C.ar      1 <0>        -0.1373
     12 C12        -3.3708   -0.5452   -3.4615 C.ar      1 <0>         0.1372
     13 C13        -3.8341   -0.3030   -2.1784 C.ar      1 <0>        -0.1010
     14 C14        -3.1513   -0.8186   -1.0967 C.ar      1 <0>        -0.1020
     15 S1         -3.4099   -0.7461    0.6572 S.3       1 <0>         0.0938
     16 O1         -4.0333   -0.0425   -4.5367 O.3       1 <0>        -0.4909
     17 C15        -0.1716   -2.8752    0.0031 C.2       1 <0>         0.4645
     18 O2         -0.2496   -4.0849   -0.1167 O.2       1 <0>        -0.4397
     19 C16         1.1491   -2.2311    0.1457 C.ar      1 <0>        -0.2053
     20 C17         1.2356   -0.8590    0.3988 C.ar      1 <0>        -0.0097
     21 C18         2.4682   -0.2616    0.5317 C.ar      1 <0>        -0.1946
     22 C19         3.6283   -1.0223    0.4143 C.ar      1 <0>         0.2364
     23 C20         3.5455   -2.3889    0.1623 C.ar      1 <0>        -0.2078
     24 C21         2.3157   -2.9931    0.0337 C.ar      1 <0>        -0.0097
     25 N1          4.8727   -0.4155    0.5487 N.pl3     1 <0>        -0.7415
     26 C22         6.0944   -1.2145    0.4255 C.3       1 <0>         0.1008
     27 C23         7.3153   -0.3117    0.6136 C.3       1 <0>        -0.0212
     28 N2          8.5404   -1.1129    0.4900 N.4       1 <0>        -0.3787
     29 C24         8.5969   -2.0896    1.5843 C.3       1 <0>        -0.0148
     30 C25         9.8294   -2.9805    1.4147 C.3       1 <0>        -0.1458
     31 C26        11.0891   -2.1099    1.4399 C.3       1 <0>        -0.1401
     32 C27        10.9854   -1.0475    0.3419 C.3       1 <0>        -0.1462
     33 C28         9.7100   -0.2283    0.5512 C.3       1 <0>        -0.0060
     34 O3         -0.4894   -3.0025    6.4311 O.3       1 <0>        -0.4989
     35 H1         -1.8285   -0.0366    3.3099 H         1 <0>         0.1345
     36 H2         -1.1568   -0.6117    5.6028 H         1 <0>         0.1373
     37 H3         -0.6397   -4.6953    4.4413 H         1 <0>         0.1365
     38 H4         -1.3048   -4.1341    2.1432 H         1 <0>         0.1341
     39 H5         -0.6481   -2.4115   -2.7347 H         1 <0>         0.1275
     40 H6         -1.8579   -1.4972   -4.6385 H         1 <0>         0.1387
     41 H7         -4.7254    0.2875   -2.0259 H         1 <0>         0.1425
     42 H8         -4.7168   -0.6298   -4.8874 H         1 <0>         0.3992
     43 H9          0.3360   -0.2683    0.4896 H         1 <0>         0.1324
     44 H10         2.5357    0.7984    0.7268 H         1 <0>         0.1307
     45 H11         4.4472   -2.9763    0.0715 H         1 <0>         0.1238
     46 H12         2.2520   -4.0541   -0.1577 H         1 <0>         0.1372
     47 H13         4.9315    0.5368    0.7240 H         1 <0>         0.4087
     48 H14         6.0976   -1.9934    1.1880 H         1 <0>         0.0830
     49 H15         6.1304   -1.6732   -0.5626 H         1 <0>         0.0828
     50 H16         7.3121    0.4672   -0.1489 H         1 <0>         0.1384
     51 H17         7.2792    0.1470    1.6017 H         1 <0>         0.1369
     52 H18         8.6574   -1.5639    2.5372 H         1 <0>         0.1309
     53 H19         7.6983   -2.7063    1.5670 H         1 <0>         0.1317
     54 H20         9.8705   -3.7038    2.2291 H         1 <0>         0.1137
     55 H21         9.7697   -3.5069    0.4622 H         1 <0>         0.0888
     56 H22        11.1763   -1.6230    2.4112 H         1 <0>         0.0823
     57 H23        11.9660   -2.7326    1.2630 H         1 <0>         0.0955
     58 H24        11.8528   -0.3891    0.3894 H         1 <0>         0.1138
     59 H25        10.9497   -1.5338   -0.6330 H         1 <0>         0.0886
     60 H26         9.6332    0.5293   -0.2288 H         1 <0>         0.1314
     61 H27         9.7469    0.2578    1.5261 H         1 <0>         0.1298
     62 H28        -1.2262   -3.2582    7.0028 H         1 <0>         0.3979
     63 H29         8.5345   -1.6005   -0.3933 H         1 <0>         0.4245
@<TRIPOS>BOND
     1    1    6 ar
     2    1    2 ar
     3    1   35 1
     4    2    3 ar
     5    2   36 1
     6    3    4 ar
     7    3   34 1
     8    4    5 ar
     9    4   37 1
    10    5    6 ar
    11    5   38 1
    12    6    7 1
    13    7   15 1
    14    7    8 2
    15    8    9 1
    16    8   17 1
    17    9   14 ar
    18    9   10 ar
    19   10   11 ar
    20   10   39 1
    21   11   12 ar
    22   11   40 1
    23   12   13 ar
    24   12   16 1
    25   13   14 ar
    26   13   41 1
    27   14   15 1
    28   16   42 1
    29   17   18 2
    30   17   19 1
    31   19   24 ar
    32   19   20 ar
    33   20   21 ar
    34   20   43 1
    35   21   22 ar
    36   21   44 1
    37   22   23 ar
    38   22   25 1
    39   23   24 ar
    40   23   45 1
    41   24   46 1
    42   25   26 1
    43   25   47 1
    44   26   27 1
    45   26   48 1
    46   26   49 1
    47   27   28 1
    48   27   50 1
    49   27   51 1
    50   28   33 1
    51   28   29 1
    52   28   63 1
    53   29   30 1
    54   29   52 1
    55   29   53 1
    56   30   31 1
    57   30   54 1
    58   30   55 1
    59   31   32 1
    60   31   56 1
    61   31   57 1
    62   32   33 1
    63   32   58 1
    64   32   59 1
    65   33   60 1
    66   33   61 1
    67   34   62 1
