@<TRIPOS>MOLECULE
CHEMBL309677
   47    51     0     0     0
SMALL
USER_CHARGES

@<TRIPOS>ATOM
      1 C1         -0.0167    1.3781    0.0096 C.ar      1 <0>        -0.1264
      2 C2          1.1709    2.0855    0.0021 C.ar      1 <0>        -0.1180
      3 C3          2.3773    1.4107   -0.0130 C.ar      1 <0>        -0.1195
      4 C4          2.3960    0.0285   -0.0201 C.ar      1 <0>        -0.0770
      5 C5          1.2084   -0.6789   -0.0117 C.ar      1 <0>        -0.1165
      6 C6          0.0021   -0.0041    0.0020 C.ar      1 <0>        -0.1178
      7 C7          3.7112   -0.7071   -0.0376 C.3       1 <0>        -0.0869
      8 C8          4.1714   -0.9633    1.3989 C.3       1 <0>        -0.0935
      9 C9          5.5066   -1.7102    1.3812 C.3       1 <0>        -0.0441
     10 C10         6.0035   -1.9540    2.8085 C.3       1 <0>         0.1980
     11 C11         5.2105   -1.2817    3.9042 C.2       1 <0>        -0.1864
     12 C12         4.7534   -1.9866    4.9463 C.2       1 <0>        -0.0922
     13 C13         4.8427   -3.3929    5.1523 C.2       1 <0>        -0.1747
     14 C14         5.1781   -4.1480    4.0528 C.2       1 <0>         0.1582
     15 N1          5.6130   -3.3598    2.9800 N.pl3     1 <0>        -0.5875
     16 C15         5.4220   -4.0283    1.8111 C.2       1 <0>         0.1188
     17 C16         5.3274   -3.1110    0.8054 C.2       1 <0>        -0.1255
     18 C17         5.0901   -3.4233   -0.6085 C.ar      1 <0>        -0.0223
     19 C18         6.0767   -3.1492   -1.5646 C.ar      1 <0>        -0.0896
     20 C19         5.8482   -3.4451   -2.8900 C.ar      1 <0>        -0.1422
     21 C20         4.6420   -4.0143   -3.2798 C.ar      1 <0>         0.1056
     22 C21         3.6592   -4.2880   -2.3364 C.ar      1 <0>        -0.1424
     23 C22         3.8781   -4.0021   -1.0071 C.ar      1 <0>        -0.0893
     24 O1          4.4224   -4.3039   -4.5890 O.3       1 <0>        -0.5001
     25 C23         5.3628   -5.3936    2.2077 C.2       1 <0>        -0.0894
     26 C24         5.2447   -5.4446    3.5761 C.2       1 <0>        -0.1049
     27 H1         -0.9591    1.9053    0.0259 H         1 <0>         0.1202
     28 H2          1.1563    3.1654    0.0076 H         1 <0>         0.1207
     29 H3          3.3051    1.9634   -0.0196 H         1 <0>         0.1198
     30 H4          1.2231   -1.7588   -0.0176 H         1 <0>         0.1177
     31 H5         -0.9258   -0.5567    0.0082 H         1 <0>         0.1203
     32 H6          3.5884   -1.6586   -0.5549 H         1 <0>         0.0825
     33 H7          4.4573   -0.1052   -0.5563 H         1 <0>         0.0701
     34 H8          4.2941   -0.0118    1.9163 H         1 <0>         0.0705
     35 H9          3.4252   -1.5652    1.9176 H         1 <0>         0.0656
     36 H10         6.2469   -1.1532    0.8069 H         1 <0>         0.0975
     37 H11         7.0776   -1.7963    2.9059 H         1 <0>         0.0947
     38 H12         5.0107   -0.2219    3.8465 H         1 <0>         0.1244
     39 H13         4.2586   -1.4221    5.7227 H         1 <0>         0.1094
     40 H14         4.6579   -3.8411    6.1174 H         1 <0>         0.1364
     41 H15         7.0145   -2.7066   -1.2628 H         1 <0>         0.1273
     42 H16         6.6079   -3.2340   -3.6281 H         1 <0>         0.1296
     43 H17         2.7235   -4.7298   -2.6456 H         1 <0>         0.1293
     44 H18         3.1155   -4.2198   -0.2740 H         1 <0>         0.1251
     45 H19         4.6999   -5.1936   -4.8469 H         1 <0>         0.3913
     46 H20         5.4041   -6.2458    1.5455 H         1 <0>         0.1532
     47 H21         5.2100   -6.3422    4.1757 H         1 <0>         0.1600
@<TRIPOS>BOND
     1    1    6 ar
     2    1    2 ar
     3    1   27 1
     4    2    3 ar
     5    2   28 1
     6    3    4 ar
     7    3   29 1
     8    4    5 ar
     9    4    7 1
    10    5    6 ar
    11    5   30 1
    12    6   31 1
    13    7    8 1
    14    7   32 1
    15    7   33 1
    16    8    9 1
    17    8   34 1
    18    8   35 1
    19    9   17 1
    20    9   10 1
    21    9   36 1
    22   10   15 1
    23   10   11 1
    24   10   37 1
    25   11   12 2
    26   11   38 1
    27   12   13 1
    28   12   39 1
    29   13   14 2
    30   13   40 1
    31   14   26 1
    32   14   15 1
    33   15   16 1
    34   16   17 2
    35   16   25 1
    36   17   18 1
    37   18   23 ar
    38   18   19 ar
    39   19   20 ar
    40   19   41 1
    41   20   21 ar
    42   20   42 1
    43   21   22 ar
    44   21   24 1
    45   22   23 ar
    46   22   43 1
    47   23   44 1
    48   24   45 1
    49   25   26 2
    50   25   46 1
    51   26   47 1
