@<TRIPOS>MOLECULE
CHEMBL135732
   37    40     0     0     0
SMALL
USER_CHARGES

@<TRIPOS>ATOM
      1 C1         -0.0187    1.5258    0.0104 C.3       1 <0>        -0.1364
      2 C2          0.0021   -0.0041    0.0020 C.3       1 <0>        -0.0497
      3 C3         -1.4094   -0.5394    0.0863 C.3       1 <0>        -0.1033
      4 C4         -2.1437    0.2180    1.2023 C.3       1 <0>        -0.0585
      5 C5         -1.2563    0.4008    2.4306 C.2       1 <0>        -0.1013
      6 C6         -1.7639    0.9547    3.6808 C.ar      1 <0>        -0.0917
      7 C7         -3.0961    1.3764    3.9261 C.ar      1 <0>        -0.0570
      8 C8         -3.3840    1.8729    5.1662 C.ar      1 <0>        -0.1494
      9 C9         -2.4427    1.9809    6.1832 C.ar      1 <0>         0.1249
     10 C10        -1.1240    1.5769    5.9843 C.ar      1 <0>        -0.0987
     11 C11        -0.8254    1.0754    4.7355 C.ar      1 <0>        -0.1097
     12 S1          0.6709    0.4553    4.0356 S.3       1 <0>         0.0567
     13 C12         0.0626    0.0569    2.4215 C.2       1 <0>        -0.1200
     14 C13         0.7536   -0.5338    1.2605 C.3       1 <0>        -0.0210
     15 H1          0.6738   -1.6203    1.2948 H         1 <0>         0.0930
     16 C14         2.1975   -0.1561    0.9779 C.3       1 <0>        -0.1106
     17 C15         2.3321   -0.2062   -0.5671 C.3       1 <0>        -0.1539
     18 C16         0.9091   -0.5071   -1.1196 C.3       1 <0>         0.1124
     19 H2          0.7734   -1.5772   -1.2761 H         1 <0>         0.0661
     20 O1          0.6707    0.2176   -2.3279 O.3       1 <0>        -0.5564
     21 O2         -2.8138    2.4873    7.3890 O.3       1 <0>        -0.4958
     22 H3          1.0039    1.9031    0.0027 H         1 <0>         0.0551
     23 H4         -0.5459    1.8868   -0.8726 H         1 <0>         0.0630
     24 H5         -0.5289    1.8773    0.9072 H         1 <0>         0.0609
     25 H6         -1.9202   -0.3809   -0.8635 H         1 <0>         0.0779
     26 H7         -1.3857   -1.6042    0.3185 H         1 <0>         0.0676
     27 H8         -2.4436    1.1977    0.8303 H         1 <0>         0.0795
     28 H9         -3.0347   -0.3420    1.4864 H         1 <0>         0.0759
     29 H10        -3.8549    1.3080    3.1605 H         1 <0>         0.1378
     30 H11        -4.3943    2.1982    5.3663 H         1 <0>         0.1295
     31 H12        -0.3793    1.6530    6.7627 H         1 <0>         0.1458
     32 H13         2.4043    0.8497    1.3436 H         1 <0>         0.0737
     33 H14         2.8743   -0.8746    1.4405 H         1 <0>         0.0725
     34 H15         2.6846    0.7541   -0.9436 H         1 <0>         0.0787
     35 H16         3.0218   -0.9988   -0.8574 H         1 <0>         0.0700
     36 H17         1.2221   -0.0640   -3.0707 H         1 <0>         0.3784
     37 H18        -3.1280    1.8211    8.0156 H         1 <0>         0.3939
@<TRIPOS>BOND
     1    1    2 1
     2    1   22 1
     3    1   23 1
     4    1   24 1
     5    2   14 1
     6    2   18 1
     7    2    3 1
     8    3    4 1
     9    3   25 1
    10    3   26 1
    11    4    5 1
    12    4   27 1
    13    4   28 1
    14    5   13 2
    15    5    6 1
    16    6   11 ar
    17    6    7 ar
    18    7    8 ar
    19    7   29 1
    20    8    9 ar
    21    8   30 1
    22    9   10 ar
    23    9   21 1
    24   10   11 ar
    25   10   31 1
    26   11   12 1
    27   12   13 1
    28   13   14 1
    29   14   15 1
    30   14   16 1
    31   16   17 1
    32   16   32 1
    33   16   33 1
    34   17   18 1
    35   17   34 1
    36   17   35 1
    37   18   19 1
    38   18   20 1
    39   20   36 1
    40   21   37 1
