@<TRIPOS>MOLECULE
CHEMBL1084922
   70    75     0     0     0
SMALL
USER_CHARGES

@<TRIPOS>ATOM
      1 C1         -0.2904    1.5686    0.1117 C.3       1 <0>        -0.0459
      2 N1         -0.1838    0.1038    0.0814 N.4       1 <0>        -0.3880
      3 C2         -1.5296   -0.4843    0.0596 C.3       1 <0>        -0.0025
      4 C3         -1.4190   -2.0098    0.0090 C.3       1 <0>         0.0261
      5 N2         -0.6776   -2.4836    1.1862 N.3       1 <0>        -0.5327
      6 C4          0.6632   -1.8837    1.2349 C.3       1 <0>         0.0192
      7 C5          0.5355   -0.3593    1.2754 C.3       1 <0>        -0.0017
      8 C6         -0.5989   -3.9504    1.2035 C.3       1 <0>         0.0570
      9 C7         -0.0468   -4.4157    2.5524 C.3       1 <0>         0.0593
     10 O1         -0.9700   -4.0744    3.5883 O.3       1 <0>        -0.3008
     11 C8         -0.6286   -4.4198    4.8576 C.ar      1 <0>         0.1321
     12 C9          0.5731   -5.0687    5.1016 C.ar      1 <0>        -0.2086
     13 C10         0.9182   -5.4184    6.3928 C.ar      1 <0>        -0.0572
     14 C11         0.0668   -5.1226    7.4413 C.ar      1 <0>        -0.1438
     15 C12        -1.1316   -4.4763    7.2007 C.ar      1 <0>        -0.0635
     16 C13        -1.4784   -4.1191    5.9121 C.ar      1 <0>        -0.1445
     17 C14         0.4455   -5.5056    8.8488 C.3       1 <0>         0.1921
     18 H1          1.5136   -5.7195    8.8880 H         1 <0>         0.1301
     19 C15        -0.3217   -6.7353    9.2516 C.2       1 <0>        -0.1090
     20 C16        -1.5272   -6.6043    9.8524 C.2       1 <0>        -0.0406
     21 C17        -2.2841   -7.8329   10.2769 C.3       1 <0>        -0.1212
     22 C18        -2.8639   -8.5522    9.0604 C.3       1 <0>         0.0751
     23 O2         -1.9077   -8.6467    8.0130 O.3       1 <0>        -0.3230
     24 C19        -0.6430   -9.0137    8.3435 C.ar      1 <0>         0.1334
     25 C20         0.1992   -8.0796    8.9700 C.ar      1 <0>        -0.0808
     26 C21         1.5020   -8.4376    9.3129 C.ar      1 <0>        -0.0758
     27 C22         1.9569   -9.7105    9.0371 C.ar      1 <0>        -0.1496
     28 C23         1.1221  -10.6339    8.4202 C.ar      1 <0>         0.1301
     29 C24        -0.1768  -10.2854    8.0742 C.ar      1 <0>        -0.1585
     30 O3          1.5793  -11.8853    8.1539 O.3       1 <0>        -0.4957
     31 C25        -2.0504   -5.2522   10.0886 C.ar      1 <0>        -0.1284
     32 C26        -3.3919   -5.0250   10.3856 C.ar      1 <0>        -0.0553
     33 C27        -3.8351   -3.7359   10.5990 C.ar      1 <0>        -0.1685
     34 C28        -2.9491   -2.6684   10.5178 C.ar      1 <0>         0.1475
     35 C29        -1.6099   -2.8865   10.2227 C.ar      1 <0>        -0.1742
     36 C30        -1.1533   -4.1719   10.0092 C.ar      1 <0>         0.1503
     37 O4          0.1502   -4.4199    9.7279 O.3       1 <0>        -0.2965
     38 O5         -3.3963   -1.4028   10.7281 O.3       1 <0>        -0.4958
     39 H2          0.7082    2.0053    0.1266 H         1 <0>         0.1242
     40 H3         -0.8241    1.9125   -0.7743 H         1 <0>         0.1245
     41 H4         -0.8343    1.8750    1.0052 H         1 <0>         0.1235
     42 H5         -2.0699   -0.1889    0.9589 H         1 <0>         0.1386
     43 H6         -2.0669   -0.1297   -0.8200 H         1 <0>         0.1364
     44 H7         -2.4175   -2.4469    0.0078 H         1 <0>         0.1250
     45 H8         -0.8907   -2.3063   -0.8971 H         1 <0>         0.0607
     46 H9          1.1839   -2.2288    2.1282 H         1 <0>         0.1224
     47 H10         1.2258   -2.1781    0.3490 H         1 <0>         0.0616
     48 H11         1.5292    0.0881    1.2972 H         1 <0>         0.1359
     49 H12        -0.0154   -0.0644    2.1686 H         1 <0>         0.1386
     50 H13        -1.5940   -4.3694    1.0542 H         1 <0>         0.1024
     51 H14         0.0612   -4.2883    0.4046 H         1 <0>         0.0698
     52 H15         0.0952   -5.4962    2.5337 H         1 <0>         0.0760
     53 H16         0.9089   -3.9269    2.7419 H         1 <0>         0.0627
     54 H17         1.2381   -5.3006    4.2829 H         1 <0>         0.1266
     55 H18         1.8535   -5.9236    6.5833 H         1 <0>         0.1275
     56 H19        -1.7951   -4.2467    8.0213 H         1 <0>         0.1328
     57 H20        -2.4126   -3.6103    5.7251 H         1 <0>         0.1304
     58 H21        -1.6092   -8.5064   10.8051 H         1 <0>         0.0854
     59 H22        -3.0960   -7.5425   10.9438 H         1 <0>         0.0949
     60 H23        -3.1733   -9.5556    9.3529 H         1 <0>         0.0649
     61 H24        -3.7337   -8.0020    8.7013 H         1 <0>         0.1031
     62 H25         2.1527   -7.7212    9.7922 H         1 <0>         0.1350
     63 H26         2.9661   -9.9902    9.3014 H         1 <0>         0.1368
     64 H27        -0.8212  -11.0075    7.5949 H         1 <0>         0.1390
     65 H28         1.4279  -12.5196    8.8680 H         1 <0>         0.3966
     66 H29        -4.0818   -5.8535   10.4482 H         1 <0>         0.1360
     67 H30        -4.8746   -3.5558   10.8297 H         1 <0>         0.1370
     68 H31        -0.9268   -2.0523   10.1603 H         1 <0>         0.1411
     69 H32        -3.3493   -1.1173   11.6508 H         1 <0>         0.3984
     70 H33         0.3201   -0.1795   -0.7456 H         1 <0>         0.4219
@<TRIPOS>BOND
     1    1    2 1
     2    1   39 1
     3    1   40 1
     4    1   41 1
     5    2    7 1
     6    2    3 1
     7    2   70 1
     8    3    4 1
     9    3   42 1
    10    3   43 1
    11    4    5 1
    12    4   44 1
    13    4   45 1
    14    5    6 1
    15    5    8 1
    16    6    7 1
    17    6   46 1
    18    6   47 1
    19    7   48 1
    20    7   49 1
    21    8    9 1
    22    8   50 1
    23    8   51 1
    24    9   10 1
    25    9   52 1
    26    9   53 1
    27   10   11 1
    28   11   16 ar
    29   11   12 ar
    30   12   13 ar
    31   12   54 1
    32   13   14 ar
    33   13   55 1
    34   14   15 ar
    35   14   17 1
    36   15   16 ar
    37   15   56 1
    38   16   57 1
    39   17   18 1
    40   17   37 1
    41   17   19 1
    42   19   25 1
    43   19   20 2
    44   20   21 1
    45   20   31 1
    46   21   22 1
    47   21   58 1
    48   21   59 1
    49   22   23 1
    50   22   60 1
    51   22   61 1
    52   23   24 1
    53   24   29 ar
    54   24   25 ar
    55   25   26 ar
    56   26   27 ar
    57   26   62 1
    58   27   28 ar
    59   27   63 1
    60   28   29 ar
    61   28   30 1
    62   29   64 1
    63   30   65 1
    64   31   36 ar
    65   31   32 ar
    66   32   33 ar
    67   32   66 1
    68   33   34 ar
    69   33   67 1
    70   34   35 ar
    71   34   38 1
    72   35   36 ar
    73   35   68 1
    74   36   37 1
    75   38   69 1
