@<TRIPOS>MOLECULE
CHEMBL315474
   70    74     0     0     0
SMALL
USER_CHARGES

@<TRIPOS>ATOM
      1 C1          0.6628    1.9781    0.8761 C.3       1 <0>        -0.1447
      2 C2          0.6379    0.4744    0.5945 C.3       1 <0>        -0.0599
      3 C3          1.1091   -0.2731    1.8153 C.2       1 <0>        -0.1211
      4 C4          2.4272   -0.7184    2.0737 C.2       1 <0>        -0.1139
      5 C5          2.3926   -1.3511    3.3041 C.2       1 <0>         0.0580
      6 O1          1.1283   -1.2938    3.7662 O.3       1 <0>        -0.1548
      7 C6          0.3505   -0.6427    2.8803 C.2       1 <0>         0.0124
      8 C7         -1.0936   -0.3764    3.0392 C.ar      1 <0>        -0.0281
      9 C8         -1.9790   -0.6744    2.0010 C.ar      1 <0>        -0.0533
     10 C9         -3.3259   -0.4242    2.1534 C.ar      1 <0>        -0.1369
     11 C10        -3.8028    0.1237    3.3369 C.ar      1 <0>         0.1211
     12 C11        -2.9260    0.4215    4.3718 C.ar      1 <0>        -0.1997
     13 C12        -1.5783    0.1688    4.2301 C.ar      1 <0>        -0.0555
     14 O2         -5.1313    0.3696    3.4827 O.3       1 <0>        -0.3265
     15 C13        -5.5540    0.9340    4.7256 C.3       1 <0>         0.0244
     16 C14        -7.0702    1.1380    4.7035 C.3       1 <0>        -0.0010
     17 N1         -7.7384   -0.1661    4.5999 N.4       1 <0>        -0.3843
     18 C15        -9.1816    0.0376    4.4263 C.3       1 <0>        -0.0070
     19 C16        -9.8722   -1.3146    4.2367 C.3       1 <0>        -0.1467
     20 C17        -9.6230   -2.1864    5.4708 C.3       1 <0>        -0.1391
     21 C18        -8.1136   -2.3307    5.6853 C.3       1 <0>        -0.1455
     22 C19        -7.4881   -0.9408    5.8212 C.3       1 <0>        -0.0134
     23 C20         3.5378   -1.9781    3.9885 C.ar      1 <0>        -0.0378
     24 C21         3.7647   -1.7309    5.3456 C.ar      1 <0>        -0.0767
     25 C22         4.8363   -2.3198    5.9811 C.ar      1 <0>        -0.1461
     26 C23         5.6906   -3.1572    5.2755 C.ar      1 <0>         0.1251
     27 C24         5.4697   -3.4055    3.9269 C.ar      1 <0>        -0.1425
     28 C25         4.3971   -2.8263    3.2840 C.ar      1 <0>        -0.0639
     29 O3          6.7462   -3.7352    5.9064 O.3       1 <0>        -0.4969
     30 C26         3.6111   -0.5420    1.1994 C.ar      1 <0>        -0.0278
     31 C27         3.6678   -1.1829   -0.0378 C.ar      1 <0>        -0.0896
     32 C28         4.7708   -1.0167   -0.8488 C.ar      1 <0>        -0.1430
     33 C29         5.8240   -0.2128   -0.4346 C.ar      1 <0>         0.1120
     34 C30         5.7709    0.4266    0.7964 C.ar      1 <0>        -0.1411
     35 C31         4.6681    0.2697    1.6097 C.ar      1 <0>        -0.0821
     36 O4          6.9099   -0.0519   -1.2358 O.3       1 <0>        -0.4988
     37 H1          1.6798    2.2853    1.1202 H         1 <0>         0.0575
     38 H2          0.3220    2.5187   -0.0069 H         1 <0>         0.0603
     39 H3          0.0044    2.2015    1.7155 H         1 <0>         0.0519
     40 H4         -0.3790    0.1672    0.3504 H         1 <0>         0.0725
     41 H5          1.2964    0.2510   -0.2449 H         1 <0>         0.0782
     42 H6         -1.6088   -1.0999    1.0799 H         1 <0>         0.1425
     43 H7         -4.0113   -0.6543    1.3511 H         1 <0>         0.1397
     44 H8         -3.3011    0.8476    5.2906 H         1 <0>         0.1320
     45 H9         -0.8977    0.3966    5.0371 H         1 <0>         0.1345
     46 H10        -5.2901    0.2589    5.5397 H         1 <0>         0.0873
     47 H11        -5.0603    1.8942    4.8752 H         1 <0>         0.1106
     48 H12        -7.3833    1.6348    5.6219 H         1 <0>         0.1493
     49 H13        -7.3415    1.7544    3.8464 H         1 <0>         0.1431
     50 H14        -9.5871    0.5316    5.3093 H         1 <0>         0.1292
     51 H15        -9.3572    0.6609    3.5495 H         1 <0>         0.1312
     52 H16       -10.9439   -1.1613    4.1098 H         1 <0>         0.1131
     53 H17        -9.4676   -1.8094    3.3538 H         1 <0>         0.0881
     54 H18       -10.0722   -1.7166    6.3458 H         1 <0>         0.0821
     55 H19       -10.0650   -3.1708    5.3170 H         1 <0>         0.0948
     56 H20        -7.9282   -2.9037    6.5938 H         1 <0>         0.1123
     57 H21        -7.6724   -2.8466    4.8325 H         1 <0>         0.0880
     58 H22        -6.4134   -1.0399    5.9743 H         1 <0>         0.1273
     59 H23        -7.9297   -0.4260    6.6745 H         1 <0>         0.1304
     60 H24         3.1014   -1.0793    5.8950 H         1 <0>         0.1301
     61 H25         5.0124   -2.1295    7.0295 H         1 <0>         0.1358
     62 H26         6.1369   -4.0571    3.3823 H         1 <0>         0.1374
     63 H27         4.2236   -3.0235    2.2365 H         1 <0>         0.1319
     64 H28         6.5463   -4.5956    6.2997 H         1 <0>         0.3960
     65 H29         2.8490   -1.8090   -0.3603 H         1 <0>         0.1268
     66 H30         4.8153   -1.5128   -1.8071 H         1 <0>         0.1319
     67 H31         6.5920    1.0513    1.1157 H         1 <0>         0.1314
     68 H32         4.6252    0.7713    2.5652 H         1 <0>         0.1245
     69 H33         6.8402    0.6936   -1.8477 H         1 <0>         0.3934
     70 H34        -7.3734   -0.6676    3.8040 H         1 <0>         0.4293
@<TRIPOS>BOND
     1    1    2 1
     2    1   37 1
     3    1   38 1
     4    1   39 1
     5    2    3 1
     6    2   40 1
     7    2   41 1
     8    3    7 2
     9    3    4 1
    10    4    5 2
    11    4   30 1
    12    5    6 1
    13    5   23 1
    14    6    7 1
    15    7    8 1
    16    8   13 ar
    17    8    9 ar
    18    9   10 ar
    19    9   42 1
    20   10   11 ar
    21   10   43 1
    22   11   12 ar
    23   11   14 1
    24   12   13 ar
    25   12   44 1
    26   13   45 1
    27   14   15 1
    28   15   16 1
    29   15   46 1
    30   15   47 1
    31   16   17 1
    32   16   48 1
    33   16   49 1
    34   17   22 1
    35   17   18 1
    36   17   70 1
    37   18   19 1
    38   18   50 1
    39   18   51 1
    40   19   20 1
    41   19   52 1
    42   19   53 1
    43   20   21 1
    44   20   54 1
    45   20   55 1
    46   21   22 1
    47   21   56 1
    48   21   57 1
    49   22   58 1
    50   22   59 1
    51   23   28 ar
    52   23   24 ar
    53   24   25 ar
    54   24   60 1
    55   25   26 ar
    56   25   61 1
    57   26   27 ar
    58   26   29 1
    59   27   28 ar
    60   27   62 1
    61   28   63 1
    62   29   64 1
    63   30   35 ar
    64   30   31 ar
    65   31   32 ar
    66   31   65 1
    67   32   33 ar
    68   32   66 1
    69   33   34 ar
    70   33   36 1
    71   34   35 ar
    72   34   67 1
    73   35   68 1
    74   36   69 1
