@<TRIPOS>MOLECULE
CHEMBL328810
   71    75     0     0     0
SMALL
USER_CHARGES

@<TRIPOS>ATOM
      1 C1          0.5984    1.1028    0.2495 C.3       1 <0>        -0.1493
      2 C2          0.4133   -0.4083    0.4024 C.3       1 <0>         0.2845
      3 C3          1.0028   -1.1099   -0.7956 C.ar      1 <0>        -0.0906
      4 C4          0.6622   -0.6351   -2.0554 C.ar      1 <0>        -0.0998
      5 C5          1.1593   -1.2389   -3.1907 C.ar      1 <0>        -0.1470
      6 C6          2.0064   -2.3315   -3.0725 C.ar      1 <0>         0.1132
      7 C7          2.3485   -2.8014   -1.8164 C.ar      1 <0>        -0.1472
      8 C8          1.8513   -2.1878   -0.6738 C.ar      1 <0>        -0.0409
      9 C9          2.2887   -2.7370    0.6587 C.3       1 <0>        -0.1034
     10 C10         1.3276   -2.3075    1.7660 C.3       1 <0>         0.1348
     11 N1          1.0890   -0.8618    1.6227 N.pl3     1 <0>        -0.6594
     12 C11         1.4906    0.0419    2.6091 C.ar      1 <0>         0.1823
     13 C12         0.5394    0.7229    3.3582 C.ar      1 <0>        -0.1384
     14 C13         0.9399    1.6153    4.3331 C.ar      1 <0>        -0.1079
     15 C14         2.2861    1.8316    4.5637 C.ar      1 <0>        -0.1289
     16 C15         3.2357    1.1554    3.8199 C.ar      1 <0>        -0.1043
     17 C16         2.8421    0.2573    2.8473 C.ar      1 <0>        -0.1334
     18 O1          2.4977   -2.9378   -4.1851 O.3       1 <0>        -0.4995
     19 C17        -1.0568   -0.7265    0.4955 C.ar      1 <0>        -0.1025
     20 C18        -1.5577   -1.3508    1.6229 C.ar      1 <0>        -0.0647
     21 C19        -2.9049   -1.6440    1.7105 C.ar      1 <0>        -0.1414
     22 C20        -3.7554   -1.3110    0.6663 C.ar      1 <0>         0.1097
     23 C21        -3.2503   -0.6841   -0.4637 C.ar      1 <0>        -0.1993
     24 C22        -1.9033   -0.3885   -0.5442 C.ar      1 <0>        -0.0736
     25 O2         -5.0809   -1.5987    0.7499 O.3       1 <0>        -0.3294
     26 C23        -5.8969   -1.2270   -0.3628 C.3       1 <0>         0.0245
     27 C24        -7.3475   -1.6283   -0.0881 C.3       1 <0>        -0.0077
     28 N2         -7.8491   -0.8854    1.0758 N.4       1 <0>        -0.3667
     29 C25        -9.1537   -1.4505    1.4717 C.3       1 <0>        -0.0036
     30 C26        -9.3766   -1.1490    2.9326 C.3       1 <0>        -0.1500
     31 C27       -10.2283    0.1201    3.1224 C.3       1 <0>        -0.1308
     32 C28        -9.8314    1.2297    2.1279 C.3       1 <0>        -0.1388
     33 C29        -8.3380    1.3364    1.9525 C.3       1 <0>        -0.1340
     34 C30        -7.9092    0.4706    0.7494 C.3       1 <0>        -0.0396
     35 H1          1.6614    1.3429    0.2741 H         1 <0>         0.0707
     36 H2          0.1747    1.4264   -0.7012 H         1 <0>         0.0684
     37 H3          0.0911    1.6155    1.0667 H         1 <0>         0.0687
     38 H4          0.0016    0.2145   -2.1466 H         1 <0>         0.1263
     39 H5          0.8905   -0.8636   -4.1671 H         1 <0>         0.1303
     40 H6          3.0074   -3.6521   -1.7239 H         1 <0>         0.1294
     41 H7          2.3130   -3.8255    0.6073 H         1 <0>         0.0834
     42 H8          3.2881   -2.3673    0.8882 H         1 <0>         0.0828
     43 H9          0.3863   -2.8482    1.6674 H         1 <0>         0.0645
     44 H10         1.7716   -2.5133    2.7400 H         1 <0>         0.0834
     45 H11        -0.5122    0.5549    3.1781 H         1 <0>         0.1179
     46 H12         0.2009    2.1451    4.9158 H         1 <0>         0.1206
     47 H13         2.5966    2.5306    5.3262 H         1 <0>         0.1221
     48 H14         4.2862    1.3267    4.0025 H         1 <0>         0.1233
     49 H15         3.5842   -0.2739    2.2698 H         1 <0>         0.1205
     50 H16         3.3373   -2.5712   -4.4946 H         1 <0>         0.3944
     51 H17        -0.8952   -1.6098    2.4355 H         1 <0>         0.1423
     52 H18        -3.2956   -2.1323    2.5910 H         1 <0>         0.1310
     53 H19        -3.9104   -0.4239   -1.2779 H         1 <0>         0.1263
     54 H20        -1.5104    0.1035   -1.4217 H         1 <0>         0.1312
     55 H21        -5.8400   -0.1486   -0.5109 H         1 <0>         0.0866
     56 H22        -5.5427   -1.7359   -1.2593 H         1 <0>         0.1093
     57 H23        -7.9601   -1.3956   -0.9591 H         1 <0>         0.1497
     58 H24        -7.3963   -2.6981    0.1152 H         1 <0>         0.1440
     59 H25        -9.9465   -0.9960    0.8776 H         1 <0>         0.1336
     60 H26        -9.1494   -2.5293    1.3157 H         1 <0>         0.1348
     61 H27        -9.8865   -1.9931    3.3969 H         1 <0>         0.1088
     62 H28        -8.4113   -1.0063    3.4183 H         1 <0>         0.0822
     63 H29       -11.2784   -0.1314    2.9735 H         1 <0>         0.0805
     64 H30       -10.0937    0.4894    4.1390 H         1 <0>         0.0817
     65 H31       -10.2861    1.0160    1.1606 H         1 <0>         0.0692
     66 H32       -10.2130    2.1835    2.4923 H         1 <0>         0.0866
     67 H33        -8.0658    2.3758    1.7691 H         1 <0>         0.1088
     68 H34        -7.8388    0.9810    2.8539 H         1 <0>         0.0874
     69 H35        -6.9262    0.7973    0.4101 H         1 <0>         0.1279
     70 H36        -8.6259    0.6088   -0.0601 H         1 <0>         0.1285
     71 H37        -7.2009   -1.0059    1.8396 H         1 <0>         0.4260
@<TRIPOS>BOND
     1    1    2 1
     2    1   35 1
     3    1   36 1
     4    1   37 1
     5    2   11 1
     6    2    3 1
     7    2   19 1
     8    3    8 ar
     9    3    4 ar
    10    4    5 ar
    11    4   38 1
    12    5    6 ar
    13    5   39 1
    14    6    7 ar
    15    6   18 1
    16    7    8 ar
    17    7   40 1
    18    8    9 1
    19    9   10 1
    20    9   41 1
    21    9   42 1
    22   10   11 1
    23   10   43 1
    24   10   44 1
    25   11   12 1
    26   12   17 ar
    27   12   13 ar
    28   13   14 ar
    29   13   45 1
    30   14   15 ar
    31   14   46 1
    32   15   16 ar
    33   15   47 1
    34   16   17 ar
    35   16   48 1
    36   17   49 1
    37   18   50 1
    38   19   24 ar
    39   19   20 ar
    40   20   21 ar
    41   20   51 1
    42   21   22 ar
    43   21   52 1
    44   22   23 ar
    45   22   25 1
    46   23   24 ar
    47   23   53 1
    48   24   54 1
    49   25   26 1
    50   26   27 1
    51   26   55 1
    52   26   56 1
    53   27   28 1
    54   27   57 1
    55   27   58 1
    56   28   34 1
    57   28   29 1
    58   28   71 1
    59   29   30 1
    60   29   59 1
    61   29   60 1
    62   30   31 1
    63   30   61 1
    64   30   62 1
    65   31   32 1
    66   31   63 1
    67   31   64 1
    68   32   33 1
    69   32   65 1
    70   32   66 1
    71   33   34 1
    72   33   67 1
    73   33   68 1
    74   34   69 1
    75   34   70 1
