@<TRIPOS>MOLECULE
CHEMBL1083186
   61    65     0     0     0
SMALL
USER_CHARGES

@<TRIPOS>ATOM
      1 C1          0.8471   -0.3351   -0.9564 C.3       1 <0>        -0.0539
      2 N1          0.0159    0.0035    0.2066 N.4       1 <0>        -0.3891
      3 C2         -0.0366    1.4632    0.3626 C.3       1 <0>        -0.0475
      4 C3         -1.3431   -0.5167    0.0053 C.3       1 <0>        -0.0015
      5 C4         -1.3081   -2.0463   -0.0003 C.3       1 <0>         0.0239
      6 O1         -0.8996   -2.5181    1.2852 O.3       1 <0>        -0.3281
      7 C5         -0.8162   -3.8645    1.4504 C.ar      1 <0>         0.1190
      8 C6         -1.1157   -4.7138    0.3952 C.ar      1 <0>        -0.2001
      9 C7         -1.0297   -6.0820    0.5655 C.ar      1 <0>        -0.0574
     10 C8         -0.6460   -6.6051    1.7865 C.ar      1 <0>        -0.1299
     11 C9         -0.3474   -5.7607    2.8399 C.ar      1 <0>        -0.0637
     12 C10        -0.4259   -4.3917    2.6728 C.ar      1 <0>        -0.1364
     13 C11        -0.5535   -8.0981    1.9696 C.3       1 <0>         0.1900
     14 H1         -0.5262   -8.5791    0.9919 H         1 <0>         0.1323
     15 C12        -1.7608   -8.5807    2.7262 C.2       1 <0>        -0.1128
     16 C13        -1.7234   -8.6396    4.0777 C.2       1 <0>        -0.0364
     17 C14        -2.9218   -9.1446    4.8336 C.3       1 <0>        -0.1223
     18 C15        -4.0425   -8.1067    4.8166 C.3       1 <0>         0.0751
     19 O2         -4.2157   -7.5561    3.5176 O.3       1 <0>        -0.3242
     20 C16        -4.2147   -8.4119    2.4636 C.ar      1 <0>         0.1324
     21 C17        -2.9956   -8.9549    2.0240 C.ar      1 <0>        -0.0821
     22 C18        -2.9749   -9.8320    0.9408 C.ar      1 <0>        -0.0756
     23 C19        -4.1544  -10.1648    0.3072 C.ar      1 <0>        -0.1491
     24 C20        -5.3593   -9.6294    0.7448 C.ar      1 <0>         0.1313
     25 C21        -5.3889   -8.7539    1.8224 C.ar      1 <0>        -0.1585
     26 O3         -6.5155   -9.9643    0.1147 O.3       1 <0>        -0.4957
     27 C22        -0.4939   -8.2223    4.7646 C.ar      1 <0>        -0.1307
     28 C23        -0.4748   -7.9354    6.1272 C.ar      1 <0>        -0.0545
     29 C24         0.7057   -7.5467    6.7266 C.ar      1 <0>        -0.1677
     30 C25         1.8704   -7.4409    5.9760 C.ar      1 <0>         0.1495
     31 C26         1.8599   -7.7257    4.6171 C.ar      1 <0>        -0.1741
     32 C27         0.6857   -8.1177    4.0057 C.ar      1 <0>         0.1477
     33 O4          0.6434   -8.4118    2.6823 O.3       1 <0>        -0.2950
     34 O5          3.0271   -7.0559    6.5758 O.3       1 <0>        -0.4956
     35 H2          1.8554    0.0509   -0.8070 H         1 <0>         0.1274
     36 H3          0.8860   -1.4182   -1.0721 H         1 <0>         0.1213
     37 H4          0.4164    0.1109   -1.8529 H         1 <0>         0.1247
     38 H5         -0.7197    1.7177    1.1730 H         1 <0>         0.1246
     39 H6          0.9595    1.8399    0.5953 H         1 <0>         0.1259
     40 H7         -0.3886    1.9153   -0.5646 H         1 <0>         0.1232
     41 H8         -1.9878   -0.1710    0.8134 H         1 <0>         0.1426
     42 H9         -1.7317   -0.1586   -0.9480 H         1 <0>         0.1496
     43 H10        -2.3015   -2.4316   -0.2299 H         1 <0>         0.1092
     44 H11        -0.6013   -2.3907   -0.7552 H         1 <0>         0.0870
     45 H12        -1.4162   -4.3057   -0.5586 H         1 <0>         0.1297
     46 H13        -1.2628   -6.7436   -0.2557 H         1 <0>         0.1326
     47 H14        -0.0482   -6.1718    3.7927 H         1 <0>         0.1376
     48 H15        -0.1882   -3.7324    3.4946 H         1 <0>         0.1337
     49 H16        -3.2771  -10.0652    4.3709 H         1 <0>         0.0863
     50 H17        -2.6362   -9.3485    5.8656 H         1 <0>         0.0958
     51 H18        -4.9727   -8.5806    5.1304 H         1 <0>         0.0658
     52 H19        -3.7980   -7.3057    5.5142 H         1 <0>         0.1032
     53 H20        -2.0392  -10.2492    0.5988 H         1 <0>         0.1354
     54 H21        -4.1409  -10.8438   -0.5325 H         1 <0>         0.1375
     55 H22        -6.3287   -8.3409    2.1581 H         1 <0>         0.1392
     56 H23        -6.9531  -10.7436    0.4838 H         1 <0>         0.3977
     57 H24        -1.3793   -8.0163    6.7117 H         1 <0>         0.1367
     58 H25         0.7245   -7.3235    7.7831 H         1 <0>         0.1381
     59 H26         2.7685   -7.6408    4.0394 H         1 <0>         0.1421
     60 H27         3.5520   -7.7890    6.9253 H         1 <0>         0.4000
     61 H28         0.4146   -0.4093    1.0365 H         1 <0>         0.4341
@<TRIPOS>BOND
     1    1    2 1
     2    1   35 1
     3    1   36 1
     4    1   37 1
     5    2    3 1
     6    2    4 1
     7    2   61 1
     8    3   38 1
     9    3   39 1
    10    3   40 1
    11    4    5 1
    12    4   41 1
    13    4   42 1
    14    5    6 1
    15    5   43 1
    16    5   44 1
    17    6    7 1
    18    7   12 ar
    19    7    8 ar
    20    8    9 ar
    21    8   45 1
    22    9   10 ar
    23    9   46 1
    24   10   11 ar
    25   10   13 1
    26   11   12 ar
    27   11   47 1
    28   12   48 1
    29   13   14 1
    30   13   33 1
    31   13   15 1
    32   15   21 1
    33   15   16 2
    34   16   17 1
    35   16   27 1
    36   17   18 1
    37   17   49 1
    38   17   50 1
    39   18   19 1
    40   18   51 1
    41   18   52 1
    42   19   20 1
    43   20   25 ar
    44   20   21 ar
    45   21   22 ar
    46   22   23 ar
    47   22   53 1
    48   23   24 ar
    49   23   54 1
    50   24   25 ar
    51   24   26 1
    52   25   55 1
    53   26   56 1
    54   27   32 ar
    55   27   28 ar
    56   28   29 ar
    57   28   57 1
    58   29   30 ar
    59   29   58 1
    60   30   31 ar
    61   30   34 1
    62   31   32 ar
    63   31   59 1
    64   32   33 1
    65   34   60 1
