@<TRIPOS>MOLECULE
CHEMBL187105
   32    35     0     0     0
SMALL
USER_CHARGES

@<TRIPOS>ATOM
      1 C1         -0.0170    1.4025    0.0098 C.ar      1 <0>        -0.1019
      2 C2          1.1498    2.0973    0.0023 C.ar      1 <0>        -0.0867
      3 C3          2.3856    1.4300   -0.0135 C.ar      1 <0>        -0.0433
      4 C4          2.4381    0.0476   -0.0218 C.ar      1 <0>        -0.0498
      5 C5          1.2443   -0.6886   -0.0140 C.ar      1 <0>        -0.0655
      6 C6          0.0021   -0.0041    0.0020 C.ar      1 <0>        -0.0216
      7 C7         -1.1911   -0.7442    0.0089 C.ar      1 <0>        -0.1408
      8 C8         -1.1404   -2.1094    0.0007 C.ar      1 <0>         0.1233
      9 C9          0.0856   -2.7823   -0.0146 C.ar      1 <0>        -0.1393
     10 C10         1.2590   -2.0956   -0.0226 C.ar      1 <0>        -0.0791
     11 O1         -2.2965   -2.8230    0.0079 O.3       1 <0>        -0.4989
     12 C11         3.6437    2.2133   -0.0218 C.2       1 <0>         0.1784
     13 C12         3.8639    3.5050   -0.6916 C.ar      1 <0>        -0.1973
     14 C13         3.0533    4.3403   -1.4619 C.ar      1 <0>        -0.0219
     15 C14         3.5573    5.5077   -1.9594 C.ar      1 <0>        -0.1706
     16 C15         4.8773    5.8716   -1.7036 C.ar      1 <0>         0.1717
     17 C16         5.6947    5.0553   -0.9424 C.ar      1 <0>        -0.1562
     18 C17         5.1951    3.8655   -0.4293 C.ar      1 <0>         0.1045
     19 O2          5.7337    2.8875    0.3274 O.3       1 <0>        -0.0844
     20 N1          4.7633    1.8888    0.5691 N.2       1 <0>        -0.2777
     21 O3          5.3654    7.0357   -2.2054 O.3       1 <0>        -0.4904
     22 H1         -0.9594    1.9298    0.0261 H         1 <0>         0.1382
     23 H2          1.1272    3.1771    0.0083 H         1 <0>         0.1322
     24 H3          3.3910   -0.4607   -0.0347 H         1 <0>         0.1380
     25 H4         -2.1443   -0.2366    0.0211 H         1 <0>         0.1379
     26 H5          0.1004   -3.8622   -0.0205 H         1 <0>         0.1344
     27 H6          2.1986   -2.6279   -0.0347 H         1 <0>         0.1370
     28 H7         -2.6398   -3.0245   -0.8734 H         1 <0>         0.3950
     29 H8          2.0292    4.0634   -1.6645 H         1 <0>         0.1409
     30 H9          2.9287    6.1528   -2.5553 H         1 <0>         0.1443
     31 H10         6.7175    5.3422   -0.7479 H         1 <0>         0.1478
     32 H11         5.2484    7.7962   -1.6197 H         1 <0>         0.4016
@<TRIPOS>BOND
     1    1    6 ar
     2    1    2 ar
     3    1   22 1
     4    2    3 ar
     5    2   23 1
     6    3    4 ar
     7    3   12 1
     8    4    5 ar
     9    4   24 1
    10    5   10 ar
    11    5    6 ar
    12    6    7 ar
    13    7    8 ar
    14    7   25 1
    15    8    9 ar
    16    8   11 1
    17    9   10 ar
    18    9   26 1
    19   10   27 1
    20   11   28 1
    21   12   20 2
    22   12   13 1
    23   13   18 ar
    24   13   14 ar
    25   14   15 ar
    26   14   29 1
    27   15   16 ar
    28   15   30 1
    29   16   17 ar
    30   16   21 1
    31   17   18 ar
    32   17   31 1
    33   18   19 1
    34   19   20 1
    35   21   32 1
