@<TRIPOS>MOLECULE
CHEMBL188516
   33    36     0     0     0
SMALL
USER_CHARGES

@<TRIPOS>ATOM
      1 C1         -0.0162    1.3431    0.0094 C.2       1 <0>        -0.2133
      2 C2          1.3256    1.7743   -0.0011 C.2       1 <0>        -0.1768
      3 C3          2.0968    0.6543   -0.0144 C.2       1 <0>         0.0114
      4 O1          1.2803   -0.4169   -0.0124 O.3       1 <0>        -0.1655
      5 C4          0.0021   -0.0041    0.0020 C.2       1 <0>        -0.0270
      6 C5          3.5735    0.6187   -0.0292 C.ar      1 <0>         0.0284
      7 C6          4.2833    1.3853   -0.9516 C.ar      1 <0>        -0.0913
      8 C7          5.6710    1.3535   -0.9674 C.ar      1 <0>         0.1151
      9 C8          6.3646    0.5624   -0.0700 C.ar      1 <0>        -0.0789
     10 C9          5.6681   -0.2126    0.8619 C.ar      1 <0>         0.0476
     11 C10         4.2665   -0.1802    0.8864 C.ar      1 <0>         0.0208
     12 O2          3.8812   -1.0112    1.8802 O.3       1 <0>        -0.1980
     13 C11         4.9880   -1.5279    2.4465 C.2       1 <0>         0.3049
     14 N1          6.0558   -1.0666    1.8445 N.2       1 <0>        -0.4679
     15 C12         4.9964   -2.4839    3.5724 C.ar      1 <0>        -0.0476
     16 C13         3.7922   -2.9230    4.1270 C.ar      1 <0>        -0.0606
     17 C14         3.8043   -3.8148    5.1773 C.ar      1 <0>        -0.1488
     18 C15         5.0122   -4.2771    5.6845 C.ar      1 <0>         0.1379
     19 C16         6.2122   -3.8427    5.1356 C.ar      1 <0>        -0.1493
     20 C17         6.2085   -2.9555    4.0814 C.ar      1 <0>        -0.0428
     21 O3          5.0199   -5.1556    6.7200 O.3       1 <0>        -0.4965
     22 O4          6.3532    2.1052   -1.8721 O.3       1 <0>        -0.4862
     23 H1         -0.8931    1.9733    0.0252 H         1 <0>         0.1545
     24 H2          1.6739    2.7965    0.0006 H         1 <0>         0.1538
     25 H3         -0.8667   -0.6456    0.0074 H         1 <0>         0.2077
     26 H4          3.7515    2.0064   -1.6573 H         1 <0>         0.1548
     27 H5          7.4443    0.5432   -0.0892 H         1 <0>         0.1496
     28 H6          2.8528   -2.5638    3.7335 H         1 <0>         0.1384
     29 H7          2.8736   -4.1545    5.6070 H         1 <0>         0.1407
     30 H8          7.1491   -4.2042    5.5329 H         1 <0>         0.1423
     31 H9          7.1417   -2.6217    3.6523 H         1 <0>         0.1466
     32 H10         5.0043   -6.0836    6.4486 H         1 <0>         0.3984
     33 H11         6.5724    2.9937   -1.5597 H         1 <0>         0.3973
@<TRIPOS>BOND
     1    1    5 2
     2    1    2 1
     3    1   23 1
     4    2    3 2
     5    2   24 1
     6    3    4 1
     7    3    6 1
     8    4    5 1
     9    5   25 1
    10    6   11 ar
    11    6    7 ar
    12    7    8 ar
    13    7   26 1
    14    8    9 ar
    15    8   22 1
    16    9   10 ar
    17    9   27 1
    18   10   14 1
    19   10   11 ar
    20   11   12 1
    21   12   13 1
    22   13   14 2
    23   13   15 1
    24   15   20 ar
    25   15   16 ar
    26   16   17 ar
    27   16   28 1
    28   17   18 ar
    29   17   29 1
    30   18   19 ar
    31   18   21 1
    32   19   20 ar
    33   19   30 1
    34   20   31 1
    35   21   32 1
    36   22   33 1
