@<TRIPOS>MOLECULE
CHEMBL44812
   64    68     0     0     0
SMALL
USER_CHARGES

@<TRIPOS>ATOM
      1 C1          0.1541    1.0199    0.0159 C.ar      1 <0>        -0.0195
      2 C2          1.3088    1.7696   -0.0099 C.ar      1 <0>        -0.1531
      3 C3          2.5482    1.1424    0.0430 C.ar      1 <0>         0.1468
      4 C4          2.6275   -0.2431    0.1217 C.ar      1 <0>        -0.2156
      5 C5          1.4775   -1.0000    0.1479 C.ar      1 <0>        -0.0184
      6 C6          0.2294   -0.3733    0.0954 C.ar      1 <0>        -0.1836
      7 C7         -1.0063   -1.1811    0.1238 C.2       1 <0>         0.4618
      8 O1         -2.0913   -0.6319    0.1810 O.2       1 <0>        -0.4304
      9 C8         -0.9266   -2.6454    0.0831 C.2       1 <0>        -0.1922
     10 C9         -0.9282   -3.4375    1.3164 C.ar      1 <0>        -0.0683
     11 C10        -0.9980   -3.0197    2.6592 C.ar      1 <0>        -0.0646
     12 C11        -0.9854   -3.9315    3.6706 C.ar      1 <0>        -0.1334
     13 C12        -0.9033   -5.2967    3.4119 C.ar      1 <0>         0.1297
     14 C13        -0.8332   -5.7405    2.1007 C.ar      1 <0>        -0.0939
     15 C14        -0.8461   -4.8213    1.0733 C.ar      1 <0>        -0.1325
     16 S1         -0.7774   -4.9367   -0.6931 S.3       1 <0>         0.1910
     17 C15        -0.8545   -3.3117   -1.1005 C.2       1 <0>        -0.1379
     18 C16        -0.8443   -2.7158   -2.4846 C.3       1 <0>        -0.0186
     19 C17        -2.0749   -3.2015   -3.2781 C.3       1 <0>        -0.1199
     20 C18        -1.5460   -3.3894   -4.7218 C.3       1 <0>        -0.1252
     21 C19        -0.1248   -3.9612   -4.4934 C.3       1 <0>        -0.1266
     22 C20         0.3956   -3.1988   -3.2573 C.3       1 <0>        -0.1187
     23 O2         -0.8914   -6.1884    4.4379 O.3       1 <0>        -0.4920
     24 O3          3.6840    1.8849    0.0174 O.3       1 <0>        -0.3243
     25 C21         4.9237    1.1764    0.0749 C.3       1 <0>         0.0231
     26 C22         6.0834    2.1736    0.0352 C.3       1 <0>        -0.0009
     27 N1          6.0365    3.0270    1.2300 N.4       1 <0>        -0.3846
     28 C23         7.0501    4.0824    1.1157 C.3       1 <0>        -0.0071
     29 C24         6.9514    5.0221    2.3194 C.3       1 <0>        -0.1468
     30 C25         7.1867    4.2231    3.6045 C.3       1 <0>        -0.1390
     31 C26         6.1707    3.0796    3.6761 C.3       1 <0>        -0.1456
     32 C27         6.2983    2.2118    2.4222 C.3       1 <0>        -0.0135
     33 H1         -0.8085    1.5082   -0.0208 H         1 <0>         0.1476
     34 H2          1.2515    2.8463   -0.0717 H         1 <0>         0.1414
     35 H3          3.5923   -0.7267    0.1619 H         1 <0>         0.1345
     36 H4          1.5399   -2.0765    0.2087 H         1 <0>         0.1374
     37 H5         -1.0618   -1.9664    2.8892 H         1 <0>         0.1255
     38 H6         -1.0399   -3.5888    4.6933 H         1 <0>         0.1372
     39 H7         -0.7691   -6.7970    1.8858 H         1 <0>         0.1424
     40 H8         -0.8450   -1.6276   -2.4224 H         1 <0>         0.0878
     41 H9         -2.4372   -4.1485   -2.8783 H         1 <0>         0.0749
     42 H10        -2.8641   -2.4500   -3.2558 H         1 <0>         0.0746
     43 H11        -2.1646   -4.0997   -5.2704 H         1 <0>         0.0747
     44 H12        -1.4986   -2.4334   -5.2433 H         1 <0>         0.0706
     45 H13        -0.1721   -5.0309   -4.2898 H         1 <0>         0.0705
     46 H14         0.5092   -3.7641   -5.3579 H         1 <0>         0.0713
     47 H15         0.9963   -2.3450   -3.5708 H         1 <0>         0.0713
     48 H16         0.9900   -3.8642   -2.6311 H         1 <0>         0.0710
     49 H17        -1.7695   -6.4936    4.7040 H         1 <0>         0.3988
     50 H18         4.9708    0.6009    0.9994 H         1 <0>         0.0890
     51 H19         4.9960    0.5009   -0.7776 H         1 <0>         0.1123
     52 H20         7.0285    1.6310    0.0131 H         1 <0>         0.1503
     53 H21         5.9993    2.7933   -0.8575 H         1 <0>         0.1435
     54 H22         8.0421    3.6313    1.0879 H         1 <0>         0.1295
     55 H23         6.8833    4.6480    0.1991 H         1 <0>         0.1313
     56 H24         7.7061    5.8039    2.2335 H         1 <0>         0.1134
     57 H25         5.9599    5.4739    2.3480 H         1 <0>         0.0881
     58 H26         8.1968    3.8135    3.5992 H         1 <0>         0.0823
     59 H27         7.0616    4.8765    4.4679 H         1 <0>         0.0950
     60 H28         6.3672    2.4729    4.5601 H         1 <0>         0.1126
     61 H29         5.1629    3.4911    3.7330 H         1 <0>         0.0879
     62 H30         5.5764    1.3965    2.4701 H         1 <0>         0.1270
     63 H31         7.3062    1.8007    2.3665 H         1 <0>         0.1308
     64 H32         5.1226    3.4479    1.3057 H         1 <0>         0.4292
@<TRIPOS>BOND
     1    1    6 ar
     2    1    2 ar
     3    1   33 1
     4    2    3 ar
     5    2   34 1
     6    3    4 ar
     7    3   24 1
     8    4    5 ar
     9    4   35 1
    10    5    6 ar
    11    5   36 1
    12    6    7 1
    13    7    8 2
    14    7    9 1
    15    9   17 2
    16    9   10 1
    17   10   15 ar
    18   10   11 ar
    19   11   12 ar
    20   11   37 1
    21   12   13 ar
    22   12   38 1
    23   13   14 ar
    24   13   23 1
    25   14   15 ar
    26   14   39 1
    27   15   16 1
    28   16   17 1
    29   17   18 1
    30   18   22 1
    31   18   19 1
    32   18   40 1
    33   19   20 1
    34   19   41 1
    35   19   42 1
    36   20   21 1
    37   20   43 1
    38   20   44 1
    39   21   22 1
    40   21   45 1
    41   21   46 1
    42   22   47 1
    43   22   48 1
    44   23   49 1
    45   24   25 1
    46   25   26 1
    47   25   50 1
    48   25   51 1
    49   26   27 1
    50   26   52 1
    51   26   53 1
    52   27   32 1
    53   27   28 1
    54   27   64 1
    55   28   29 1
    56   28   54 1
    57   28   55 1
    58   29   30 1
    59   29   56 1
    60   29   57 1
    61   30   31 1
    62   30   58 1
    63   30   59 1
    64   31   32 1
    65   31   60 1
    66   31   61 1
    67   32   62 1
    68   32   63 1
