@<TRIPOS>MOLECULE
CHEMBL394357
   30    32     0     0     0
SMALL
USER_CHARGES

@<TRIPOS>ATOM
      1 C1         -0.0168    1.3913    0.0097 C.ar      1 <0>        -0.0839
      2 C2          1.1685    2.0950    0.0022 C.ar      1 <0>        -0.1437
      3 C3          2.3804    1.4171   -0.0131 C.ar      1 <0>         0.1123
      4 C4          2.4031    0.0286   -0.0212 C.ar      1 <0>        -0.1443
      5 C5          1.2218   -0.6819   -0.0142 C.ar      1 <0>        -0.0846
      6 C6          0.0021   -0.0041    0.0020 C.ar      1 <0>        -0.0660
      7 C7         -1.2686   -0.7634    0.0101 C.ar      1 <0>         0.0176
      8 C8         -2.2470   -0.4519    0.9394 C.ar      1 <0>        -0.1175
      9 C9         -3.4450   -1.1363    0.9801 C.ar      1 <0>        -0.0563
     10 C10        -3.6803   -2.1665    0.0652 C.ar      1 <0>        -0.0206
     11 C11        -2.7039   -2.4883   -0.8744 C.ar      1 <0>        -0.0895
     12 C12        -1.4747   -1.8038   -0.9428 C.ar      1 <0>        -0.0816
     13 C13        -0.5777   -2.2683   -1.9884 C.2       1 <0>        -0.1450
     14 C14        -0.9656   -3.2727   -2.7890 C.2       1 <0>        -0.1663
     15 S1         -2.5892   -3.6852   -2.1791 S.3       1 <0>         0.0877
     16 C15        -4.9529   -2.9074    0.0948 C.2       1 <0>         0.1382
     17 N1         -5.1669   -3.8612   -0.7548 N.2       1 <0>        -0.3245
     18 O1         -6.3903   -4.5736   -0.7263 O.3       1 <0>        -0.4045
     19 O2          3.5466    2.1140   -0.0205 O.3       1 <0>        -0.4993
     20 H1         -0.9589    1.9191    0.0260 H         1 <0>         0.1316
     21 H2          1.1546    3.1749    0.0077 H         1 <0>         0.1330
     22 H3          3.3475   -0.4953   -0.0334 H         1 <0>         0.1325
     23 H4          1.2402   -1.7617   -0.0212 H         1 <0>         0.1301
     24 H5         -2.0686    0.3434    1.6479 H         1 <0>         0.1374
     25 H6         -4.1945   -0.8781    1.7135 H         1 <0>         0.1457
     26 H7          0.3911   -1.8093   -2.1197 H         1 <0>         0.1381
     27 H8         -0.4213   -3.7276   -3.6033 H         1 <0>         0.1898
     28 H9         -5.7077   -2.6554    0.8250 H         1 <0>         0.1317
     29 H10        -6.4580   -5.2661   -1.3978 H         1 <0>         0.4084
     30 H11         3.8927    2.3110    0.8608 H         1 <0>         0.3934
@<TRIPOS>BOND
     1    1    6 ar
     2    1    2 ar
     3    1   20 1
     4    2    3 ar
     5    2   21 1
     6    3    4 ar
     7    3   19 1
     8    4    5 ar
     9    4   22 1
    10    5    6 ar
    11    5   23 1
    12    6    7 1
    13    7   12 ar
    14    7    8 ar
    15    8    9 ar
    16    8   24 1
    17    9   10 ar
    18    9   25 1
    19   10   11 ar
    20   10   16 1
    21   11   15 1
    22   11   12 ar
    23   12   13 1
    24   13   14 2
    25   13   26 1
    26   14   15 1
    27   14   27 1
    28   16   17 2
    29   16   28 1
    30   17   18 1
    31   18   29 1
    32   19   30 1
