@<TRIPOS>MOLECULE
CHEMBL80560
   38    42     0     0     0
SMALL
USER_CHARGES

@<TRIPOS>ATOM
      1 C1         -0.0169    1.3967    0.0097 C.ar      1 <0>        -0.0878
      2 C2          1.1679    2.0986    0.0022 C.ar      1 <0>        -0.1422
      3 C3          2.3806    1.4203   -0.0130 C.ar      1 <0>         0.1041
      4 C4          2.4060    0.0310   -0.0207 C.ar      1 <0>        -0.1427
      5 C5          1.2279   -0.6822   -0.0138 C.ar      1 <0>        -0.0887
      6 C6          0.0021   -0.0041    0.0020 C.ar      1 <0>        -0.0245
      7 C7         -1.2567   -0.7579    0.0105 C.2       1 <0>        -0.1075
      8 C8         -2.2166   -0.7805   -0.9895 C.2       1 <0>         0.1311
      9 C9         -2.6905   -0.6280   -2.3142 C.2       1 <0>        -0.0893
     10 C10        -3.8497   -1.3614   -2.4816 C.2       1 <0>        -0.1036
     11 C11        -4.1985   -1.9732   -1.2668 C.2       1 <0>         0.1547
     12 C12        -4.9831   -2.8967   -0.6166 C.2       1 <0>        -0.1761
     13 C13        -4.7780   -3.2904    0.7443 C.2       1 <0>        -0.0846
     14 C14        -3.9538   -2.6563    1.5823 C.2       1 <0>        -0.1421
     15 C15        -3.5714   -2.9546    2.9967 C.3       1 <0>        -0.0622
     16 C16        -2.0689   -2.7866    3.2380 C.3       1 <0>        -0.1156
     17 C17        -1.4639   -1.5307    2.5684 C.3       1 <0>        -0.0969
     18 C18        -1.7550   -1.6610    1.1005 C.3       1 <0>        -0.0577
     19 C19        -3.2865   -1.4517    0.9709 C.3       1 <0>         0.1462
     20 N1         -3.3007   -1.3846   -0.4471 N.pl3     1 <0>        -0.5683
     21 O1          3.5462    2.1183   -0.0209 O.3       1 <0>        -0.5000
     22 H1         -0.9587    1.9251    0.0261 H         1 <0>         0.1265
     23 H2          1.1546    3.1785    0.0077 H         1 <0>         0.1302
     24 H3          3.3516   -0.4907   -0.0326 H         1 <0>         0.1299
     25 H4          1.2489   -1.7620   -0.0205 H         1 <0>         0.1264
     26 H5         -2.2181   -0.0287   -3.0785 H         1 <0>         0.1532
     27 H6         -4.4029   -1.4500   -3.4050 H         1 <0>         0.1555
     28 H7         -5.7981   -3.3491   -1.1621 H         1 <0>         0.1251
     29 H8         -5.3204   -4.1479    1.1142 H         1 <0>         0.1174
     30 H9         -4.1136   -2.2802    3.6594 H         1 <0>         0.0787
     31 H10        -3.8546   -3.9809    3.2306 H         1 <0>         0.0756
     32 H11        -1.8939   -2.7263    4.3122 H         1 <0>         0.0723
     33 H12        -1.5544   -3.6674    2.8540 H         1 <0>         0.0623
     34 H13        -1.9305   -0.6309    2.9691 H         1 <0>         0.0719
     35 H14        -0.3867   -1.5006    2.7327 H         1 <0>         0.0728
     36 H15        -1.5617   -2.6903    0.7986 H         1 <0>         0.0803
     37 H16        -3.6237   -0.5258    1.4368 H         1 <0>         0.0847
     38 H17         3.8922    2.3159    0.8602 H         1 <0>         0.3912
@<TRIPOS>BOND
     1    1    6 ar
     2    1    2 ar
     3    1   22 1
     4    2    3 ar
     5    2   23 1
     6    3    4 ar
     7    3   21 1
     8    4    5 ar
     9    4   24 1
    10    5    6 ar
    11    5   25 1
    12    6    7 1
    13    7   18 1
    14    7    8 2
    15    8   20 1
    16    8    9 1
    17    9   10 2
    18    9   26 1
    19   10   11 1
    20   10   27 1
    21   11   20 1
    22   11   12 2
    23   12   13 1
    24   12   28 1
    25   13   14 2
    26   13   29 1
    27   14   19 1
    28   14   15 1
    29   15   16 1
    30   15   30 1
    31   15   31 1
    32   16   17 1
    33   16   32 1
    34   16   33 1
    35   17   18 1
    36   17   34 1
    37   17   35 1
    38   18   19 1
    39   18   36 1
    40   19   20 1
    41   19   37 1
    42   21   38 1
