@<TRIPOS>MOLECULE
CHEMBL56390
   63    67     0     0     0
SMALL
USER_CHARGES

@<TRIPOS>ATOM
      1 C1          0.0598    1.3096    0.2711 C.ar      1 <0>        -0.0850
      2 C2          1.2568    1.9990    0.2475 C.ar      1 <0>        -0.1433
      3 C3          2.4298    1.3385   -0.0880 C.ar      1 <0>         0.1139
      4 C4          2.3974   -0.0131   -0.3991 C.ar      1 <0>        -0.1464
      5 C5          1.1979   -0.6979   -0.3741 C.ar      1 <0>        -0.0774
      6 C6          0.0303   -0.0374   -0.0394 C.ar      1 <0>        -0.1063
      7 C7         -1.2768   -0.7870   -0.0125 C.3       1 <0>         0.2008
      8 C8         -1.6624   -1.2106   -1.4359 C.3       1 <0>        -0.1266
      9 C9         -3.0228   -1.9059   -1.3927 C.3       1 <0>        -0.0770
     10 C10        -3.0251   -2.9967   -0.3543 C.ar      1 <0>        -0.1212
     11 C11        -3.9693   -4.0058   -0.4458 C.ar      1 <0>        -0.1031
     12 C12        -3.9988   -5.0221    0.4953 C.ar      1 <0>         0.0656
     13 C13        -3.0812   -5.0322    1.5358 C.ar      1 <0>        -0.1079
     14 C14        -2.1385   -4.0287    1.6301 C.ar      1 <0>        -0.1605
     15 C15        -2.1072   -3.0099    0.6841 C.ar      1 <0>         0.1995
     16 N1         -1.1348   -2.0059    0.7955 N.pl3     1 <0>        -0.5838
     17 C16        -0.0469   -2.1625    1.6616 C.ar      1 <0>         0.1568
     18 C17         0.0787   -1.3417    2.7750 C.ar      1 <0>        -0.0828
     19 C18         1.1524   -1.4973    3.6294 C.ar      1 <0>        -0.1253
     20 C19         2.1055   -2.4725    3.3757 C.ar      1 <0>         0.1053
     21 C20         1.9813   -3.2924    2.2637 C.ar      1 <0>        -0.1868
     22 C21         0.9050   -3.1425    1.4116 C.ar      1 <0>        -0.0880
     23 O1          3.1628   -2.6247    4.2174 O.3       1 <0>        -0.3283
     24 C22         4.1062   -3.6486    3.8955 C.3       1 <0>         0.0275
     25 C23         5.2163   -3.6685    4.9482 C.3       1 <0>         0.0038
     26 N2          4.6516   -4.0551    6.2480 N.4       1 <0>        -0.3956
     27 C24         4.2280   -5.4784    6.2195 C.3       1 <0>        -0.0105
     28 C25         4.2071   -5.8722    7.7178 C.3       1 <0>        -0.1447
     29 C26         5.4254   -5.1131    8.2918 C.3       1 <0>        -0.1451
     30 C27         5.6861   -3.9633    7.3011 C.3       1 <0>        -0.0086
     31 O2         -4.9283   -6.0102    0.3994 O.3       1 <0>        -0.4976
     32 O3          3.6084    2.0145   -0.1123 O.3       1 <0>        -0.4973
     33 H1         -0.8529    1.8223    0.5366 H         1 <0>         0.1298
     34 H2          1.2793    3.0512    0.4897 H         1 <0>         0.1320
     35 H3          3.3092   -0.5294   -0.6609 H         1 <0>         0.1261
     36 H4          1.1722   -1.7501   -0.6161 H         1 <0>         0.1235
     37 H5         -2.0570   -0.1534    0.4092 H         1 <0>         0.0826
     38 H6         -1.7225   -0.3298   -2.0753 H         1 <0>         0.0866
     39 H7         -0.9130   -1.8982   -1.8279 H         1 <0>         0.0736
     40 H8         -3.7930   -1.1746   -1.1478 H         1 <0>         0.0797
     41 H9         -3.2365   -2.3391   -2.3699 H         1 <0>         0.0837
     42 H10        -4.6853   -4.0007   -1.2544 H         1 <0>         0.1315
     43 H11        -3.1048   -5.8234    2.2705 H         1 <0>         0.1278
     44 H12        -1.4236   -4.0349    2.4396 H         1 <0>         0.1215
     45 H13        -0.6630   -0.5818    2.9723 H         1 <0>         0.1342
     46 H14         1.2501   -0.8591    4.4952 H         1 <0>         0.1337
     47 H15         2.7243   -4.0510    2.0666 H         1 <0>         0.1284
     48 H16         0.8058   -3.7841    0.5485 H         1 <0>         0.1302
     49 H17         3.6025   -4.6150    3.8803 H         1 <0>         0.0849
     50 H18         4.5388   -3.4489    2.9151 H         1 <0>         0.1074
     51 H19         5.9813   -4.3878    4.6560 H         1 <0>         0.1482
     52 H20         5.6612   -2.6764    5.0259 H         1 <0>         0.1409
     53 H21         3.2342   -5.5753    5.7823 H         1 <0>         0.1334
     54 H22         4.9506   -6.0840    5.6726 H         1 <0>         0.1348
     55 H23         3.2849   -5.5363    8.1921 H         1 <0>         0.0985
     56 H24         4.3328   -6.9485    7.8355 H         1 <0>         0.1174
     57 H25         5.1925   -4.7158    9.2797 H         1 <0>         0.1057
     58 H26         6.2920   -5.7722    8.3429 H         1 <0>         0.1045
     59 H27         6.6766   -4.0715    6.8590 H         1 <0>         0.1314
     60 H28         5.6086   -3.0054    7.8153 H         1 <0>         0.1329
     61 H29        -4.6409   -6.7710   -0.1237 H         1 <0>         0.3871
     62 H30         4.0810    2.0116    0.7313 H         1 <0>         0.3903
     63 H31         3.8680   -3.4624    6.4775 H         1 <0>         0.4336
@<TRIPOS>BOND
     1    1    6 ar
     2    1    2 ar
     3    1   33 1
     4    2    3 ar
     5    2   34 1
     6    3    4 ar
     7    3   32 1
     8    4    5 ar
     9    4   35 1
    10    5    6 ar
    11    5   36 1
    12    6    7 1
    13    7   16 1
    14    7    8 1
    15    7   37 1
    16    8    9 1
    17    8   38 1
    18    8   39 1
    19    9   10 1
    20    9   40 1
    21    9   41 1
    22   10   15 ar
    23   10   11 ar
    24   11   12 ar
    25   11   42 1
    26   12   13 ar
    27   12   31 1
    28   13   14 ar
    29   13   43 1
    30   14   15 ar
    31   14   44 1
    32   15   16 1
    33   16   17 1
    34   17   22 ar
    35   17   18 ar
    36   18   19 ar
    37   18   45 1
    38   19   20 ar
    39   19   46 1
    40   20   21 ar
    41   20   23 1
    42   21   22 ar
    43   21   47 1
    44   22   48 1
    45   23   24 1
    46   24   25 1
    47   24   49 1
    48   24   50 1
    49   25   26 1
    50   25   51 1
    51   25   52 1
    52   26   30 1
    53   26   27 1
    54   26   63 1
    55   27   28 1
    56   27   53 1
    57   27   54 1
    58   28   29 1
    59   28   55 1
    60   28   56 1
    61   29   30 1
    62   29   57 1
    63   29   58 1
    64   30   59 1
    65   30   60 1
    66   31   61 1
    67   32   62 1
