@<TRIPOS>MOLECULE
CHEMBL433769
   67    72     0     0     0
SMALL
USER_CHARGES

@<TRIPOS>ATOM
      1 C1          1.1631   -0.6117   -0.4390 C.ar      1 <0>        -0.0873
      2 C2          2.3518    0.0921   -0.4484 C.ar      1 <0>        -0.1389
      3 C3          2.3800    1.4096   -0.0147 C.ar      1 <0>         0.1157
      4 C4          1.2137    2.0170    0.4273 C.ar      1 <0>        -0.1461
      5 C5          0.0275    1.3089    0.4346 C.ar      1 <0>        -0.0837
      6 C6          0.0021   -0.0041    0.0020 C.ar      1 <0>        -0.0898
      7 C7         -1.2934   -0.7740    0.0107 C.3       1 <0>        -0.0641
      8 H1         -2.1334   -0.0869    0.1120 H         1 <0>         0.1382
      9 C8         -1.2969   -1.7821    1.1721 C.3       1 <0>         0.1497
     10 H2         -2.1779   -2.4197    1.0986 H         1 <0>         0.0962
     11 O1         -0.1255   -2.5802    1.0967 O.3       1 <0>        -0.3049
     12 C9          0.1551   -3.3416    0.0132 C.ar      1 <0>         0.1211
     13 C10         0.9986   -4.4351    0.1946 C.ar      1 <0>        -0.1140
     14 C11         1.3394   -5.2447   -0.8692 C.ar      1 <0>        -0.1061
     15 C12         0.8443   -4.9772   -2.1372 C.ar      1 <0>         0.0985
     16 C13        -0.0005   -3.8960   -2.3286 C.ar      1 <0>        -0.0901
     17 C14        -0.3494   -3.0850   -1.2568 C.ar      1 <0>        -0.1477
     18 S1         -1.4568   -1.7323   -1.5285 S.3       1 <0>        -0.0841
     19 O2          1.1866   -5.7716   -3.1864 O.3       1 <0>        -0.4915
     20 C15        -1.3198   -1.0400    2.4835 C.ar      1 <0>        -0.1046
     21 C16        -0.1522   -0.5024    2.9927 C.ar      1 <0>        -0.0346
     22 C17        -0.1704    0.1779    4.1949 C.ar      1 <0>        -0.1417
     23 C18        -1.3617    0.3218    4.8912 C.ar      1 <0>         0.1245
     24 C19        -2.5320   -0.2182    4.3779 C.ar      1 <0>        -0.2035
     25 C20        -2.5094   -0.8931    3.1727 C.ar      1 <0>        -0.0589
     26 O3         -1.3822    0.9902    6.0743 O.3       1 <0>        -0.3267
     27 C21        -2.6441    1.0995    6.7359 C.3       1 <0>         0.0272
     28 C22        -2.4698    1.8785    8.0411 C.3       1 <0>         0.0040
     29 N1         -2.0692    3.2589    7.7377 N.4       1 <0>        -0.3980
     30 C23        -3.1983    4.0050    7.1258 C.3       1 <0>        -0.0061
     31 C24        -2.8649    5.4912    7.3737 C.3       1 <0>        -0.1105
     32 H3         -2.3945    5.9514    6.5048 H         1 <0>         0.1137
     33 C25        -4.1543    6.2295    7.7848 C.3       1 <0>        -0.1200
     34 C26        -3.7199    7.1295    8.9676 C.3       1 <0>        -0.1280
     35 C27        -2.7174    6.2296    9.7311 C.3       1 <0>        -0.1184
     36 C28        -1.9257    5.4894    8.6056 C.3       1 <0>        -0.1131
     37 H4         -0.9683    5.9626    8.3874 H         1 <0>         0.1174
     38 C29        -1.7770    4.0023    8.9900 C.3       1 <0>        -0.0004
     39 O4          3.5482    2.1039   -0.0225 O.3       1 <0>        -0.4998
     40 H5          1.1398   -1.6359   -0.7807 H         1 <0>         0.1323
     41 H6          3.2585   -0.3831   -0.7926 H         1 <0>         0.1315
     42 H7          1.2331    3.0424    0.7657 H         1 <0>         0.1293
     43 H8         -0.8807    1.7813    0.7787 H         1 <0>         0.1234
     44 H9          1.3899   -4.6512    1.1778 H         1 <0>         0.1413
     45 H10         1.9942   -6.0894   -0.7144 H         1 <0>         0.1429
     46 H11        -0.3883   -3.6831   -3.3139 H         1 <0>         0.1405
     47 H12         0.5878   -6.5179   -3.3264 H         1 <0>         0.3946
     48 H13         0.7750   -0.6147    2.4504 H         1 <0>         0.1388
     49 H14         0.7420    0.5970    4.5927 H         1 <0>         0.1351
     50 H15        -3.4607   -0.1075    4.9180 H         1 <0>         0.1312
     51 H16        -3.4210   -1.3098    2.7705 H         1 <0>         0.1347
     52 H17        -3.3483    1.6246    6.0906 H         1 <0>         0.0855
     53 H18        -3.0265    0.1028    6.9560 H         1 <0>         0.1091
     54 H19        -3.4123    1.8857    8.5886 H         1 <0>         0.1482
     55 H20        -1.7003    1.4021    8.6486 H         1 <0>         0.1418
     56 H21        -3.2531    3.8013    6.0564 H         1 <0>         0.1307
     57 H22        -4.1369    3.7400    7.6125 H         1 <0>         0.1345
     58 H23        -4.5249    6.8374    6.9595 H         1 <0>         0.0839
     59 H24        -4.9147    5.5179    8.1067 H         1 <0>         0.0767
     60 H25        -3.2297    8.0332    8.6057 H         1 <0>         0.0786
     61 H26        -4.5737    7.3778    9.5980 H         1 <0>         0.0823
     62 H27        -2.0378    6.8376   10.3283 H         1 <0>         0.0832
     63 H28        -3.2488    5.5180   10.3630 H         1 <0>         0.0776
     64 H29        -2.4952    3.7368    9.7657 H         1 <0>         0.1347
     65 H30        -0.7606    3.7965    9.3256 H         1 <0>         0.1349
     66 H31         3.7178    2.5792   -0.8474 H         1 <0>         0.3955
     67 H32        -1.2661    3.2672    7.1269 H         1 <0>         0.4337
@<TRIPOS>BOND
     1    1    6 ar
     2    1    2 ar
     3    1   40 1
     4    2    3 ar
     5    2   41 1
     6    3    4 ar
     7    3   39 1
     8    4    5 ar
     9    4   42 1
    10    5    6 ar
    11    5   43 1
    12    6    7 1
    13    7    8 1
    14    7   18 1
    15    7    9 1
    16    9   10 1
    17    9   11 1
    18    9   20 1
    19   11   12 1
    20   12   17 ar
    21   12   13 ar
    22   13   14 ar
    23   13   44 1
    24   14   15 ar
    25   14   45 1
    26   15   16 ar
    27   15   19 1
    28   16   17 ar
    29   16   46 1
    30   17   18 1
    31   19   47 1
    32   20   25 ar
    33   20   21 ar
    34   21   22 ar
    35   21   48 1
    36   22   23 ar
    37   22   49 1
    38   23   24 ar
    39   23   26 1
    40   24   25 ar
    41   24   50 1
    42   25   51 1
    43   26   27 1
    44   27   28 1
    45   27   52 1
    46   27   53 1
    47   28   29 1
    48   28   54 1
    49   28   55 1
    50   29   38 1
    51   29   30 1
    52   29   67 1
    53   30   31 1
    54   30   56 1
    55   30   57 1
    56   31   32 1
    57   31   36 1
    58   31   33 1
    59   33   34 1
    60   33   58 1
    61   33   59 1
    62   34   35 1
    63   34   60 1
    64   34   61 1
    65   35   36 1
    66   35   62 1
    67   35   63 1
    68   36   37 1
    69   36   38 1
    70   38   64 1
    71   38   65 1
    72   39   66 1
