@<TRIPOS>MOLECULE
CHEMBL226003
   71    73     0     0     0
SMALL
USER_CHARGES

@<TRIPOS>ATOM
      1 C1         -1.6143    0.8462   -0.1641 C.3       1 <0>        -0.1544
      2 C2         -1.4944   -0.6782   -0.1125 C.3       1 <0>        -0.1261
      3 C3         -0.6220   -1.0812    1.0781 C.3       1 <0>        -0.1213
      4 C4         -0.5022   -2.6056    1.1297 C.3       1 <0>        -0.1212
      5 C5          0.3702   -3.0086    2.3202 C.3       1 <0>        -0.1207
      6 C6          0.4900   -4.5330    2.3718 C.3       1 <0>        -0.1206
      7 C7          1.3624   -4.9360    3.5624 C.3       1 <0>        -0.1205
      8 C8          1.4822   -6.4605    3.6140 C.3       1 <0>        -0.1205
      9 C9          2.3546   -6.8635    4.8045 C.3       1 <0>        -0.1188
     10 C10         2.4745   -8.3879    4.8561 C.3       1 <0>        -0.1163
     11 C11         3.3469   -8.7909    6.0466 C.3       1 <0>        -0.1293
     12 C12         3.4667  -10.3153    6.0982 C.3       1 <0>         0.1295
     13 N1          4.3020  -10.7012    7.2382 N.pl3     1 <0>        -0.7637
     14 C13         4.4672  -12.0321    7.5516 C.2       1 <0>         0.2964
     15 C14         5.0954  -12.9638    6.5997 C.ar      1 <0>        -0.1624
     16 C15         5.5425  -12.5257    5.3521 C.ar      1 <0>        -0.0549
     17 C16         6.1263  -13.4226    4.4848 C.ar      1 <0>        -0.1440
     18 C17         6.2697  -14.7539    4.8466 C.ar      1 <0>        -0.0627
     19 C18         5.8318  -15.1993    6.0760 C.ar      1 <0>        -0.1349
     20 C19         5.2413  -14.3108    6.9654 C.ar      1 <0>         0.1519
     21 O1          4.8080  -14.7299    8.1742 O.3       1 <0>        -0.2747
     22 C20         4.2345  -13.8886    9.0496 C.2       1 <0>         0.5201
     23 O2          3.8613  -14.3193   10.1272 O.2       1 <0>        -0.4607
     24 C21         4.0569  -12.5293    8.7619 C.2       1 <0>        -0.2633
     25 C22         3.4141  -11.6185    9.7759 C.3       1 <0>        -0.0073
     26 C23         1.9153  -11.6885    9.6351 C.ar      1 <0>        -0.0655
     27 C24         1.3509  -12.4228    8.6086 C.ar      1 <0>        -0.1081
     28 C25        -0.0237  -12.4869    8.4794 C.ar      1 <0>        -0.1230
     29 C26        -0.8343  -11.8171    9.3770 C.ar      1 <0>        -0.1215
     30 C27        -0.2702  -11.0837   10.4037 C.ar      1 <0>        -0.1170
     31 C28         1.1048  -11.0231   10.5354 C.ar      1 <0>        -0.0851
     32 C29         1.7198  -10.2277   11.6580 C.3       1 <0>        -0.1182
     33 H1         -0.6227    1.2851   -0.2752 H         1 <0>         0.0533
     34 H2         -2.2358    1.1334   -1.0122 H         1 <0>         0.0536
     35 H3         -2.0696    1.2063    0.7584 H         1 <0>         0.0533
     36 H4         -2.4860   -1.1170   -0.0013 H         1 <0>         0.0603
     37 H5         -1.0391   -1.0383   -1.0350 H         1 <0>         0.0603
     38 H6          0.3695   -0.6423    0.9669 H         1 <0>         0.0605
     39 H7         -1.0774   -0.7211    2.0006 H         1 <0>         0.0606
     40 H8         -1.4938   -3.0444    1.2408 H         1 <0>         0.0606
     41 H9         -0.0468   -2.9657    0.2071 H         1 <0>         0.0605
     42 H10         1.3617   -2.5698    2.2091 H         1 <0>         0.0604
     43 H11        -0.0852   -2.6485    3.2427 H         1 <0>         0.0604
     44 H12        -0.5016   -4.9719    2.4829 H         1 <0>         0.0606
     45 H13         0.9454   -4.8931    1.4493 H         1 <0>         0.0605
     46 H14         2.3540   -4.4972    3.4512 H         1 <0>         0.0604
     47 H15         0.9070   -4.5759    4.4849 H         1 <0>         0.0606
     48 H16         0.4907   -6.8993    3.7251 H         1 <0>         0.0612
     49 H17         1.9376   -6.8206    2.6914 H         1 <0>         0.0610
     50 H18         3.3462   -6.4246    4.6934 H         1 <0>         0.0616
     51 H19         1.8993   -6.5034    5.7270 H         1 <0>         0.0618
     52 H20         1.4829   -8.8267    4.9672 H         1 <0>         0.0649
     53 H21         2.9298   -8.7480    3.9336 H         1 <0>         0.0642
     54 H22         4.3384   -8.3521    5.9355 H         1 <0>         0.0690
     55 H23         2.8915   -8.4308    6.9692 H         1 <0>         0.0707
     56 H24         2.4751  -10.7541    6.2094 H         1 <0>         0.0616
     57 H25         3.9221  -10.6754    5.1757 H         1 <0>         0.0578
     58 H26         4.7388  -10.0193    7.7722 H         1 <0>         0.4073
     59 H27         5.4311  -11.4896    5.0682 H         1 <0>         0.1397
     60 H28         6.4735  -13.0877    3.5185 H         1 <0>         0.1349
     61 H29         6.7286  -15.4486    4.1586 H         1 <0>         0.1404
     62 H30         5.9482  -16.2382    6.3472 H         1 <0>         0.1447
     63 H31         3.6998  -11.9332   10.7796 H         1 <0>         0.0917
     64 H32         3.7474  -10.5945    9.6074 H         1 <0>         0.0858
     65 H33         1.9842  -12.9461    7.9074 H         1 <0>         0.1110
     66 H34        -0.4645  -13.0600    7.6772 H         1 <0>         0.1180
     67 H35        -1.9084  -11.8666    9.2757 H         1 <0>         0.1200
     68 H36        -0.9034  -10.5602   11.1046 H         1 <0>         0.1208
     69 H37         1.8083   -9.1837   11.3576 H         1 <0>         0.0697
     70 H38         1.0872  -10.2988   12.5428 H         1 <0>         0.0671
     71 H39         2.7088  -10.6254   11.8856 H         1 <0>         0.0681
@<TRIPOS>BOND
     1    1    2 1
     2    1   33 1
     3    1   34 1
     4    1   35 1
     5    2    3 1
     6    2   36 1
     7    2   37 1
     8    3    4 1
     9    3   38 1
    10    3   39 1
    11    4    5 1
    12    4   40 1
    13    4   41 1
    14    5    6 1
    15    5   42 1
    16    5   43 1
    17    6    7 1
    18    6   44 1
    19    6   45 1
    20    7    8 1
    21    7   46 1
    22    7   47 1
    23    8    9 1
    24    8   48 1
    25    8   49 1
    26    9   10 1
    27    9   50 1
    28    9   51 1
    29   10   11 1
    30   10   52 1
    31   10   53 1
    32   11   12 1
    33   11   54 1
    34   11   55 1
    35   12   13 1
    36   12   56 1
    37   12   57 1
    38   13   14 1
    39   13   58 1
    40   14   24 2
    41   14   15 1
    42   15   20 ar
    43   15   16 ar
    44   16   17 ar
    45   16   59 1
    46   17   18 ar
    47   17   60 1
    48   18   19 ar
    49   18   61 1
    50   19   20 ar
    51   19   62 1
    52   20   21 1
    53   21   22 1
    54   22   23 2
    55   22   24 1
    56   24   25 1
    57   25   26 1
    58   25   63 1
    59   25   64 1
    60   26   31 ar
    61   26   27 ar
    62   27   28 ar
    63   27   65 1
    64   28   29 ar
    65   28   66 1
    66   29   30 ar
    67   29   67 1
    68   30   31 ar
    69   30   68 1
    70   31   32 1
    71   32   69 1
    72   32   70 1
    73   32   71 1
