@<TRIPOS>MOLECULE
CHEMBL370282
   61    66     0     0     0
SMALL
USER_CHARGES

@<TRIPOS>ATOM
      1 C1          0.0455    1.0387    0.0457 C.ar      1 <0>        -0.0551
      2 C2          1.1889    1.8128    0.0031 C.ar      1 <0>        -0.1394
      3 C3          2.4366    1.2068    0.0262 C.ar      1 <0>         0.1222
      4 C4          2.5327   -0.1756    0.0922 C.ar      1 <0>        -0.2002
      5 C5          1.3863   -0.9453    0.1346 C.ar      1 <0>        -0.0631
      6 C6          0.1439   -0.3389    0.1114 C.ar      1 <0>        -0.1342
      7 C7         -1.1051   -1.1809    0.1582 C.3       1 <0>         0.1476
      8 N1         -1.5169   -1.5200   -1.2062 N.pl3     1 <0>        -0.4681
      9 C8         -2.3668   -0.7610   -1.9818 C.ar      1 <0>         0.1321
     10 C9         -3.0386    0.4366   -1.7573 C.ar      1 <0>        -0.1201
     11 C10        -3.8405    0.9739   -2.7396 C.ar      1 <0>        -0.1035
     12 C11        -3.9888    0.3283   -3.9640 C.ar      1 <0>         0.0830
     13 C12        -3.3313   -0.8610   -4.2066 C.ar      1 <0>        -0.0876
     14 C13        -2.5140   -1.4157   -3.2179 C.ar      1 <0>        -0.0425
     15 C14        -1.6963   -2.6184   -3.1340 C.2       1 <0>        -0.1757
     16 C15        -1.0963   -2.6604   -1.9088 C.2       1 <0>         0.0949
     17 C16        -0.2170   -3.8145   -1.6431 C.ar      1 <0>        -0.0742
     18 C17         0.5107   -4.0879   -0.4614 C.ar      1 <0>        -0.0741
     19 C18         1.2853   -5.2012   -0.3649 C.ar      1 <0>        -0.1431
     20 C19         1.3899   -6.1065   -1.4181 C.ar      1 <0>         0.1375
     21 C20         0.6905   -5.8702   -2.5910 C.ar      1 <0>        -0.0970
     22 C21        -0.0965   -4.7425   -2.6940 C.ar      1 <0>        -0.0868
     23 S1         -1.1359   -4.0788   -3.9694 S.3       1 <0>         0.1204
     24 O1          2.1715   -7.2120   -1.2968 O.3       1 <0>        -0.4917
     25 O2         -4.7844    0.8708   -4.9243 O.3       1 <0>        -0.4932
     26 O3          3.5629    1.9661   -0.0160 O.3       1 <0>        -0.3280
     27 C22         4.8130    1.2744    0.0113 C.3       1 <0>         0.0247
     28 C23         5.9580    2.2878   -0.0434 C.3       1 <0>         0.0002
     29 N2          5.9254    3.1288    1.1606 N.4       1 <0>        -0.3869
     30 C24         6.9322    4.1926    1.0426 C.3       1 <0>        -0.0438
     31 C25         6.8961    5.0675    2.2981 C.3       1 <0>         0.0355
     32 O4          7.1277    4.2504    3.4490 O.3       1 <0>        -0.3555
     33 C26         6.1858    3.1839    3.5945 C.3       1 <0>         0.0374
     34 C27         6.2205    2.3055    2.3414 C.3       1 <0>        -0.0502
     35 H1         -0.9261    1.5102    0.0322 H         1 <0>         0.1367
     36 H2          1.1115    2.8887   -0.0486 H         1 <0>         0.1366
     37 H3          3.5029   -0.6498    0.1100 H         1 <0>         0.1301
     38 H4          1.4605   -2.0215    0.1860 H         1 <0>         0.1334
     39 H5         -0.9056   -2.0961    0.7156 H         1 <0>         0.0983
     40 H6         -1.9016   -0.6224    0.6499 H         1 <0>         0.1039
     41 H7         -2.9313    0.9455   -0.8108 H         1 <0>         0.1272
     42 H8         -4.3590    1.9038   -2.5584 H         1 <0>         0.1386
     43 H9         -3.4480   -1.3609   -5.1568 H         1 <0>         0.1347
     44 H10         0.4507   -3.4048    0.3730 H         1 <0>         0.1251
     45 H11         1.8315   -5.3873    0.5481 H         1 <0>         0.1361
     46 H12         0.7615   -6.5626   -3.4169 H         1 <0>         0.1461
     47 H13         1.7091   -7.9836   -0.9418 H         1 <0>         0.3999
     48 H14        -4.3233    1.4754   -5.5217 H         1 <0>         0.3902
     49 H15         4.8864    0.6926    0.9301 H         1 <0>         0.0872
     50 H16         4.8776    0.6065   -0.8478 H         1 <0>         0.1116
     51 H17         6.9097    1.7586   -0.0914 H         1 <0>         0.1516
     52 H18         5.8461    2.9150   -0.9278 H         1 <0>         0.1451
     53 H19         7.9215    3.7470    0.9381 H         1 <0>         0.1406
     54 H20         6.7142    4.8040    0.1670 H         1 <0>         0.1443
     55 H21         7.6711    5.8311    2.2320 H         1 <0>         0.1437
     56 H22         5.9198    5.5449    2.3812 H         1 <0>         0.0819
     57 H23         6.4466    2.5843    4.4667 H         1 <0>         0.1429
     58 H24         5.1851    3.5969    3.7219 H         1 <0>         0.0816
     59 H25         5.4741    1.5160    2.4300 H         1 <0>         0.1394
     60 H26         7.2100    1.8606    2.2365 H         1 <0>         0.1417
     61 H27         5.0098    3.5412    1.2583 H         1 <0>         0.4299
@<TRIPOS>BOND
     1    1    6 ar
     2    1    2 ar
     3    1   35 1
     4    2    3 ar
     5    2   36 1
     6    3    4 ar
     7    3   26 1
     8    4    5 ar
     9    4   37 1
    10    5    6 ar
    11    5   38 1
    12    6    7 1
    13    7    8 1
    14    7   39 1
    15    7   40 1
    16    8   16 1
    17    8    9 1
    18    9   14 ar
    19    9   10 ar
    20   10   11 ar
    21   10   41 1
    22   11   12 ar
    23   11   42 1
    24   12   13 ar
    25   12   25 1
    26   13   14 ar
    27   13   43 1
    28   14   15 1
    29   15   23 1
    30   15   16 2
    31   16   17 1
    32   17   22 ar
    33   17   18 ar
    34   18   19 ar
    35   18   44 1
    36   19   20 ar
    37   19   45 1
    38   20   21 ar
    39   20   24 1
    40   21   22 ar
    41   21   46 1
    42   22   23 1
    43   24   47 1
    44   25   48 1
    45   26   27 1
    46   27   28 1
    47   27   49 1
    48   27   50 1
    49   28   29 1
    50   28   51 1
    51   28   52 1
    52   29   34 1
    53   29   30 1
    54   29   61 1
    55   30   31 1
    56   30   53 1
    57   30   54 1
    58   31   32 1
    59   31   55 1
    60   31   56 1
    61   32   33 1
    62   33   34 1
    63   33   57 1
    64   33   58 1
    65   34   59 1
    66   34   60 1
