@<TRIPOS>MOLECULE
CHEMBL273663
   68    70     0     0     0
SMALL
USER_CHARGES

@<TRIPOS>ATOM
      1 C1          0.4982    0.2050   -1.1198 C.3       1 <0>        -0.1848
      2 C2         -0.2487   -0.9226   -0.4044 C.3       1 <0>         0.0173
      3 C3          0.6205   -1.4713    0.7289 C.3       1 <0>        -0.1938
      4 N1         -1.5056   -0.4027    0.1503 N.4       1 <0>        -0.3818
      5 C4         -2.3281    0.1495   -0.9344 C.3       1 <0>        -0.0093
      6 C5         -3.5709    0.8176   -0.3427 C.3       1 <0>         0.0280
      7 O1         -3.1742    1.9116    0.4866 O.3       1 <0>        -0.3277
      8 C6         -4.1647    2.6169    1.0928 C.ar      1 <0>         0.1108
      9 C7         -5.4913    2.2573    0.8962 C.ar      1 <0>        -0.1992
     10 C8         -6.4989    2.9710    1.5100 C.ar      1 <0>        -0.0644
     11 C9         -6.1844    4.0548    2.3288 C.ar      1 <0>        -0.0469
     12 C10        -4.8512    4.4134    2.5243 C.ar      1 <0>        -0.0674
     13 C11        -3.8480    3.6921    1.9122 C.ar      1 <0>        -0.1396
     14 C12        -7.2653    4.8247    2.9900 C.2       1 <0>        -0.0790
     15 C13        -7.3682    4.8232    4.3247 C.2       1 <0>        -0.0674
     16 C14        -6.3883    4.0478    5.1773 C.3       1 <0>        -0.0920
     17 C15        -5.8301    4.9855    6.2530 C.3       1 <0>        -0.1152
     18 C16        -6.9880    5.6100    7.0333 C.3       1 <0>        -0.1235
     19 C17        -7.8333    6.4787    6.1003 C.3       1 <0>        -0.1164
     20 C18        -8.4634    5.6018    5.0192 C.3       1 <0>        -0.0922
     21 C19        -8.2322    5.5964    2.1728 C.ar      1 <0>        -0.0472
     22 C20        -9.5806    5.2415    2.1657 C.ar      1 <0>        -0.0914
     23 C21       -10.4775    5.9614    1.4050 C.ar      1 <0>        -0.1439
     24 C22       -10.0392    7.0388    0.6468 C.ar      1 <0>         0.1091
     25 C23        -8.6971    7.3945    0.6514 C.ar      1 <0>        -0.1435
     26 C24        -7.7961    6.6821    1.4144 C.ar      1 <0>        -0.0886
     27 O2        -10.9254    7.7462   -0.1017 O.3       1 <0>        -0.5000
     28 C25        -2.2359   -1.4915    0.8130 C.3       1 <0>         0.0176
     29 C26        -2.0279   -2.7925    0.0351 C.3       1 <0>        -0.1879
     30 C27        -1.7125   -1.6617    2.2406 C.3       1 <0>        -0.2076
     31 H1          1.4308   -0.1809   -1.5313 H         1 <0>         0.1061
     32 H2         -0.1211    0.5959   -1.9272 H         1 <0>         0.0813
     33 H3          0.7168    1.0032   -0.4104 H         1 <0>         0.0818
     34 H4         -0.4672   -1.7209   -1.1138 H         1 <0>         0.1418
     35 H5          0.7237   -0.7146    1.5066 H         1 <0>         0.0836
     36 H6          0.1516   -2.3616    1.1480 H         1 <0>         0.0954
     37 H7          1.6055   -1.7287    0.3394 H         1 <0>         0.1047
     38 H8         -1.7491    0.8869   -1.4903 H         1 <0>         0.1456
     39 H9         -2.6322   -0.6543   -1.6050 H         1 <0>         0.1476
     40 H10        -4.2051    1.1846   -1.1496 H         1 <0>         0.1089
     41 H11        -4.1245    0.0920    0.2532 H         1 <0>         0.0851
     42 H12        -5.7343    1.4179    0.2616 H         1 <0>         0.1268
     43 H13        -7.5306    2.6910    1.3564 H         1 <0>         0.1297
     44 H14        -4.6044    5.2526    3.1577 H         1 <0>         0.1353
     45 H15        -2.8149    3.9664    2.0669 H         1 <0>         0.1332
     46 H16        -6.8990    3.2096    5.6515 H         1 <0>         0.0761
     47 H17        -5.5734    3.6787    4.5546 H         1 <0>         0.0742
     48 H18        -5.1955    4.4196    6.9349 H         1 <0>         0.0658
     49 H19        -5.2439    5.7733    5.7798 H         1 <0>         0.0628
     50 H20        -7.6093    4.8195    7.4542 H         1 <0>         0.0638
     51 H21        -6.5907    6.2255    7.8404 H         1 <0>         0.0654
     52 H22        -8.6185    6.9710    6.6741 H         1 <0>         0.0680
     53 H23        -7.1997    7.2311    5.6308 H         1 <0>         0.0631
     54 H24        -8.9811    6.2308    4.2950 H         1 <0>         0.0776
     55 H25        -9.1696    4.9101    5.4785 H         1 <0>         0.0771
     56 H26        -9.9221    4.4033    2.7550 H         1 <0>         0.1266
     57 H27       -11.5220    5.6868    1.3988 H         1 <0>         0.1311
     58 H28        -8.3592    8.2328    0.0603 H         1 <0>         0.1302
     59 H29        -6.7531    6.9623    1.4214 H         1 <0>         0.1245
     60 H30       -11.3278    8.4914    0.3651 H         1 <0>         0.3942
     61 H31        -3.2987   -1.2513    0.8418 H         1 <0>         0.1336
     62 H32        -2.6630   -3.5724    0.4552 H         1 <0>         0.1039
     63 H33        -2.2891   -2.6357   -1.0115 H         1 <0>         0.0777
     64 H34        -0.9836   -3.0961    0.1074 H         1 <0>         0.0899
     65 H35        -2.1397   -0.8881    2.8787 H         1 <0>         0.0823
     66 H36        -1.9991   -2.6432    2.6180 H         1 <0>         0.1041
     67 H37        -0.6260   -1.5748    2.2420 H         1 <0>         0.1008
     68 H38        -1.3024    0.3231    0.8211 H         1 <0>         0.4281
@<TRIPOS>BOND
     1    1    2 1
     2    1   31 1
     3    1   32 1
     4    1   33 1
     5    2    3 1
     6    2    4 1
     7    2   34 1
     8    3   35 1
     9    3   36 1
    10    3   37 1
    11    4    5 1
    12    4   28 1
    13    4   68 1
    14    5    6 1
    15    5   38 1
    16    5   39 1
    17    6    7 1
    18    6   40 1
    19    6   41 1
    20    7    8 1
    21    8   13 ar
    22    8    9 ar
    23    9   10 ar
    24    9   42 1
    25   10   11 ar
    26   10   43 1
    27   11   12 ar
    28   11   14 1
    29   12   13 ar
    30   12   44 1
    31   13   45 1
    32   14   15 2
    33   14   21 1
    34   15   20 1
    35   15   16 1
    36   16   17 1
    37   16   46 1
    38   16   47 1
    39   17   18 1
    40   17   48 1
    41   17   49 1
    42   18   19 1
    43   18   50 1
    44   18   51 1
    45   19   20 1
    46   19   52 1
    47   19   53 1
    48   20   54 1
    49   20   55 1
    50   21   26 ar
    51   21   22 ar
    52   22   23 ar
    53   22   56 1
    54   23   24 ar
    55   23   57 1
    56   24   25 ar
    57   24   27 1
    58   25   26 ar
    59   25   58 1
    60   26   59 1
    61   27   60 1
    62   28   29 1
    63   28   30 1
    64   28   61 1
    65   29   62 1
    66   29   63 1
    67   29   64 1
    68   30   65 1
    69   30   66 1
    70   30   67 1
