@<TRIPOS>MOLECULE
CHEMBL372029
   62    66     0     0     0
SMALL
USER_CHARGES

@<TRIPOS>ATOM
      1 C1          0.2793    1.1956    1.8071 C.3       1 <0>        -0.0474
      2 N1          0.2026   -0.2705    1.7550 N.4       1 <0>        -0.3852
      3 C2          1.4158   -0.8002    1.1211 C.3       1 <0>        -0.0070
      4 C3          1.3781   -2.3298    1.1372 C.3       1 <0>        -0.1403
      5 C4          0.1455   -2.8127    0.3673 C.3       1 <0>        -0.0538
      6 C5         -1.1087   -2.1946    0.9918 C.3       1 <0>        -0.1408
      7 C6         -0.9789   -0.6700    0.9811 C.3       1 <0>        -0.0069
      8 C7          0.0593   -4.3152    0.4455 C.ar      1 <0>        -0.0931
      9 C8         -0.0563   -4.9379    1.6742 C.ar      1 <0>        -0.1148
     10 C9         -0.1354   -6.3161    1.7459 C.ar      1 <0>        -0.0972
     11 C10        -0.0994   -7.0716    0.5889 C.ar      1 <0>        -0.0780
     12 C11         0.0152   -6.4489   -0.6399 C.ar      1 <0>        -0.0994
     13 C12         0.0900   -5.0704   -0.7119 C.ar      1 <0>        -0.1054
     14 C13        -0.1847   -8.5742    0.6671 C.3       1 <0>         0.2353
     15 C14         0.8947   -9.0910    1.5851 C.ar      1 <0>        -0.1016
     16 C15         2.2076   -9.0342    1.1358 C.ar      1 <0>        -0.0890
     17 C16         3.2412   -9.4811    1.9312 C.ar      1 <0>        -0.1452
     18 C17         2.9663   -9.9907    3.1922 C.ar      1 <0>         0.1160
     19 C18         1.6572  -10.0506    3.6374 C.ar      1 <0>        -0.1476
     20 C19         0.6168   -9.6054    2.8321 C.ar      1 <0>        -0.0456
     21 C20        -0.7838   -9.7269    3.3723 C.3       1 <0>        -0.1036
     22 C21        -1.7367   -8.7928    2.6282 C.3       1 <0>         0.1130
     23 N2         -1.5011   -8.9620    1.1847 N.pl3     1 <0>        -0.6182
     24 C22        -2.4914   -9.4719    0.3421 C.ar      1 <0>         0.2377
     25 C23        -2.2827   -9.5139   -1.0312 C.ar      1 <0>        -0.2059
     26 C24        -3.2621  -10.0182   -1.8642 C.ar      1 <0>        -0.0535
     27 C25        -4.4514  -10.4827   -1.3350 C.ar      1 <0>        -0.1994
     28 C26        -4.6653  -10.4437    0.0356 C.ar      1 <0>         0.1549
     29 C27        -3.6830   -9.9428    0.8757 C.ar      1 <0>        -0.2232
     30 O1         -5.8353  -10.9008    0.5544 O.3       1 <0>        -0.5009
     31 O2          3.9780  -10.4296    3.9864 O.3       1 <0>        -0.4969
     32 H1         -0.6183    1.5897    2.2837 H         1 <0>         0.1239
     33 H2          1.1563    1.4934    2.3817 H         1 <0>         0.1239
     34 H3          0.3566    1.5916    0.7945 H         1 <0>         0.1218
     35 H4          1.4695   -0.4493    0.0904 H         1 <0>         0.1293
     36 H5          2.2923   -0.4530    1.6682 H         1 <0>         0.1317
     37 H6          2.2789   -2.7211    0.6645 H         1 <0>         0.1140
     38 H7          1.3247   -2.6817    2.1675 H         1 <0>         0.0895
     39 H8          0.2232   -2.5047   -0.6753 H         1 <0>         0.0957
     40 H9         -1.9855   -2.4893    0.4151 H         1 <0>         0.1142
     41 H10        -1.2138   -2.5437    2.0191 H         1 <0>         0.0896
     42 H11        -1.8703   -0.2267    1.4248 H         1 <0>         0.1319
     43 H12        -0.8742   -0.3219   -0.0466 H         1 <0>         0.1294
     44 H13        -0.0844   -4.3476    2.5782 H         1 <0>         0.1173
     45 H14        -0.2250   -6.8026    2.7060 H         1 <0>         0.1269
     46 H15         0.0437   -7.0392   -1.5439 H         1 <0>         0.1272
     47 H16         0.1759   -4.5837   -1.6722 H         1 <0>         0.1252
     48 H17        -0.0471   -8.9975   -0.3278 H         1 <0>         0.1063
     49 H18         2.4207   -8.6367    0.1545 H         1 <0>         0.1263
     50 H19         4.2595   -9.4351    1.5744 H         1 <0>         0.1320
     51 H20         1.4429  -10.4467    4.6190 H         1 <0>         0.1305
     52 H21        -1.1254  -10.7553    3.2548 H         1 <0>         0.0870
     53 H22        -0.7832   -9.4689    4.4313 H         1 <0>         0.0879
     54 H23        -2.7683   -9.0522    2.8664 H         1 <0>         0.0931
     55 H24        -1.5398   -7.7599    2.9154 H         1 <0>         0.0734
     56 H25        -1.3542   -9.1516   -1.4473 H         1 <0>         0.1202
     57 H26        -3.0985  -10.0494   -2.9313 H         1 <0>         0.1275
     58 H27        -5.2155  -10.8761   -1.9890 H         1 <0>         0.1268
     59 H28        -3.8461   -9.9155    1.9429 H         1 <0>         0.1286
     60 H29        -5.8240  -11.8406    0.7821 H         1 <0>         0.3950
     61 H30         4.3514   -9.7472    4.5609 H         1 <0>         0.3929
     62 H31         0.1285   -0.6359    2.6926 H         1 <0>         0.4240
@<TRIPOS>BOND
     1    1    2 1
     2    1   32 1
     3    1   33 1
     4    1   34 1
     5    2    7 1
     6    2    3 1
     7    2   62 1
     8    3    4 1
     9    3   35 1
    10    3   36 1
    11    4    5 1
    12    4   37 1
    13    4   38 1
    14    5    6 1
    15    5    8 1
    16    5   39 1
    17    6    7 1
    18    6   40 1
    19    6   41 1
    20    7   42 1
    21    7   43 1
    22    8   13 ar
    23    8    9 ar
    24    9   10 ar
    25    9   44 1
    26   10   11 ar
    27   10   45 1
    28   11   12 ar
    29   11   14 1
    30   12   13 ar
    31   12   46 1
    32   13   47 1
    33   14   23 1
    34   14   15 1
    35   14   48 1
    36   15   20 ar
    37   15   16 ar
    38   16   17 ar
    39   16   49 1
    40   17   18 ar
    41   17   50 1
    42   18   19 ar
    43   18   31 1
    44   19   20 ar
    45   19   51 1
    46   20   21 1
    47   21   22 1
    48   21   52 1
    49   21   53 1
    50   22   23 1
    51   22   54 1
    52   22   55 1
    53   23   24 1
    54   24   29 ar
    55   24   25 ar
    56   25   26 ar
    57   25   56 1
    58   26   27 ar
    59   26   57 1
    60   27   28 ar
    61   27   58 1
    62   28   29 ar
    63   28   30 1
    64   29   59 1
    65   30   60 1
    66   31   61 1
