@<TRIPOS>MOLECULE
CHEMBL99335
   45    48     0     0     0
SMALL
USER_CHARGES

@<TRIPOS>ATOM
      1 C1          0.0048    1.4337    0.0481 C.3       1 <0>         0.0241
      2 O1          0.0108    0.0048    0.0288 O.3       1 <0>        -0.3132
      3 C2         -1.1969   -0.6177    0.0558 C.ar      1 <0>         0.1336
      4 C3         -2.3642    0.1315    0.0943 C.ar      1 <0>        -0.2103
      5 C4         -3.5905   -0.5035    0.1213 C.ar      1 <0>        -0.0804
      6 C5         -3.6555   -1.8848    0.1099 C.ar      1 <0>        -0.1580
      7 C6         -2.4940   -2.6335    0.0721 C.ar      1 <0>        -0.0706
      8 C7         -1.2650   -2.0030    0.0392 C.ar      1 <0>        -0.1105
      9 C8          0.0006   -2.8198   -0.0084 C.3       1 <0>        -0.0165
     10 C9          0.5305   -3.0069    1.3899 C.2       1 <0>        -0.0457
     11 C10         1.4348   -2.1545    2.0708 C.ar      1 <0>        -0.1432
     12 C11         2.0881   -0.9647    1.7266 C.ar      1 <0>        -0.0253
     13 C12         2.9220   -0.3644    2.6236 C.ar      1 <0>        -0.1682
     14 C13         3.1288   -0.9274    3.8822 C.ar      1 <0>         0.1528
     15 C14         2.4919   -2.1028    4.2403 C.ar      1 <0>        -0.1495
     16 C15         1.6398   -2.7278    3.3406 C.ar      1 <0>         0.0863
     17 O2          0.8985   -3.8526    3.4024 O.3       1 <0>        -0.1707
     18 C16         0.2276   -4.0234    2.2418 C.2       1 <0>        -0.0641
     19 C17        -0.6825   -5.1340    1.9453 C.2       1 <0>         0.4732
     20 O3         -1.2978   -5.1528    0.8952 O.2       1 <0>        -0.4065
     21 C18        -0.8528   -6.2305    2.9213 C.ar      1 <0>        -0.1607
     22 C19        -0.2469   -6.1523    4.1774 C.ar      1 <0>        -0.0579
     23 C20        -0.4102   -7.1787    5.0834 C.ar      1 <0>        -0.1294
     24 C21        -1.1722   -8.2857    4.7513 C.ar      1 <0>        -0.0711
     25 C22        -1.7756   -8.3712    3.5099 C.ar      1 <0>        -0.1268
     26 C23        -1.6255   -7.3480    2.5941 C.ar      1 <0>         0.0173
     27 Cl1        -2.3893   -7.4530    1.0387 Cl        1 <0>        -0.0326
     28 O4          3.9625   -0.3177    4.7638 O.3       1 <0>        -0.4915
     29 H1          1.0305    1.8017    0.0230 H         1 <0>         0.1001
     30 H2         -0.5364    1.8065   -0.8215 H         1 <0>         0.0564
     31 H3         -0.4842    1.7827    0.9576 H         1 <0>         0.0550
     32 H4         -2.3139    1.2103    0.1035 H         1 <0>         0.1271
     33 H5         -4.4993    0.0792    0.1516 H         1 <0>         0.1234
     34 H6         -4.6153   -2.3795    0.1311 H         1 <0>         0.1235
     35 H7         -2.5474   -3.7122    0.0637 H         1 <0>         0.1443
     36 H8         -0.2118   -3.7935   -0.4498 H         1 <0>         0.1019
     37 H9          0.7450   -2.3014   -0.6127 H         1 <0>         0.0903
     38 H10         1.9324   -0.5237    0.7532 H         1 <0>         0.1461
     39 H11         3.4257    0.5530    2.3571 H         1 <0>         0.1377
     40 H12         2.6578   -2.5327    5.2171 H         1 <0>         0.1412
     41 H13         0.3486   -5.2899    4.4382 H         1 <0>         0.1521
     42 H14         0.0580   -7.1190    6.0549 H         1 <0>         0.1374
     43 H15        -1.2959   -9.0867    5.4651 H         1 <0>         0.1393
     44 H16        -2.3684   -9.2379    3.2573 H         1 <0>         0.1420
     45 H17         3.5250    0.3247    5.3391 H         1 <0>         0.3973
@<TRIPOS>BOND
     1    1    2 1
     2    1   29 1
     3    1   30 1
     4    1   31 1
     5    2    3 1
     6    3    8 ar
     7    3    4 ar
     8    4    5 ar
     9    4   32 1
    10    5    6 ar
    11    5   33 1
    12    6    7 ar
    13    6   34 1
    14    7    8 ar
    15    7   35 1
    16    8    9 1
    17    9   10 1
    18    9   36 1
    19    9   37 1
    20   10   18 2
    21   10   11 1
    22   11   16 ar
    23   11   12 ar
    24   12   13 ar
    25   12   38 1
    26   13   14 ar
    27   13   39 1
    28   14   15 ar
    29   14   28 1
    30   15   16 ar
    31   15   40 1
    32   16   17 1
    33   17   18 1
    34   18   19 1
    35   19   20 2
    36   19   21 1
    37   21   26 ar
    38   21   22 ar
    39   22   23 ar
    40   22   41 1
    41   23   24 ar
    42   23   42 1
    43   24   25 ar
    44   24   43 1
    45   25   26 ar
    46   25   44 1
    47   26   27 1
    48   28   45 1
