@<TRIPOS>MOLECULE
CHEMBL81
   62    66     0     0     0
SMALL
USER_CHARGES

@<TRIPOS>ATOM
      1 C1         -1.0560   -3.6471   -2.9834 C.ar      1 <0>        -0.0731
      2 C2         -0.5292   -3.8209   -4.2441 C.ar      1 <0>        -0.1418
      3 C3         -0.2617   -2.7179   -5.0458 C.ar      1 <0>         0.1273
      4 C4         -0.5240   -1.4352   -4.5802 C.ar      1 <0>        -0.1436
      5 C5         -1.0507   -1.2517   -3.3208 C.ar      1 <0>        -0.0726
      6 C6         -1.3215   -2.3585   -2.5107 C.ar      1 <0>        -0.0443
      7 C7         -1.8857   -2.1673   -1.1621 C.2       1 <0>        -0.0491
      8 C8         -1.4781   -2.7470    0.0324 C.2       1 <0>        -0.1672
      9 C9         -2.2084   -2.3914    1.2518 C.ar      1 <0>        -0.0733
     10 C10        -1.9811   -2.8478    2.5699 C.ar      1 <0>        -0.0620
     11 C11        -2.7636   -2.4131    3.6070 C.ar      1 <0>        -0.1362
     12 C12        -3.8034   -1.5118    3.3971 C.ar      1 <0>         0.1376
     13 C13        -4.0502   -1.0462    2.1156 C.ar      1 <0>        -0.0999
     14 C14        -3.2654   -1.4805    1.0680 C.ar      1 <0>        -0.1027
     15 S1         -3.2496   -1.1310   -0.6716 S.3       1 <0>         0.0989
     16 O1         -4.5695   -1.0928    4.4389 O.3       1 <0>        -0.4890
     17 C15        -0.3552   -3.6836    0.0717 C.2       1 <0>         0.4632
     18 O2         -0.5599   -4.8828    0.0108 O.2       1 <0>        -0.4303
     19 C16         1.0269   -3.1752    0.1852 C.ar      1 <0>        -0.1819
     20 C17         1.2584   -1.8082    0.3588 C.ar      1 <0>        -0.0197
     21 C18         2.5485   -1.3381    0.4641 C.ar      1 <0>        -0.1529
     22 C19         3.6196   -2.2215    0.3980 C.ar      1 <0>         0.1478
     23 C20         3.3936   -3.5820    0.2249 C.ar      1 <0>        -0.2153
     24 C21         2.1062   -4.0607    0.1249 C.ar      1 <0>        -0.0165
     25 O3          4.8897   -1.7543    0.5022 O.3       1 <0>        -0.3241
     26 C22         5.9433   -2.7167    0.4259 C.3       1 <0>         0.0227
     27 C23         7.2923   -2.0079    0.5623 C.3       1 <0>        -0.0010
     28 N1          7.3928   -1.3985    1.8951 N.4       1 <0>        -0.3845
     29 C24         8.6181   -0.5941    1.9726 C.3       1 <0>        -0.0072
     30 C25         8.6868    0.1080    3.3305 C.3       1 <0>        -0.1466
     31 C26         8.6938   -0.9442    4.4432 C.3       1 <0>        -0.1392
     32 C27         7.4482   -1.8247    4.3075 C.3       1 <0>        -0.1453
     33 C28         7.4253   -2.4551    2.9134 C.3       1 <0>        -0.0137
     34 O4          0.2580   -2.8940   -6.2879 O.3       1 <0>        -0.4983
     35 H1         -1.2677   -4.5052   -2.3627 H         1 <0>         0.1336
     36 H2         -0.3235   -4.8160   -4.6100 H         1 <0>         0.1374
     37 H3         -0.3141   -0.5808   -5.2066 H         1 <0>         0.1382
     38 H4         -1.2542   -0.2544   -2.9597 H         1 <0>         0.1348
     39 H5         -1.1813   -3.5477    2.7618 H         1 <0>         0.1270
     40 H6         -2.5705   -2.7766    4.6055 H         1 <0>         0.1391
     41 H7         -4.8538   -0.3469    1.9378 H         1 <0>         0.1433
     42 H8         -4.2357   -0.2987    4.8782 H         1 <0>         0.3978
     43 H9          0.4267   -1.1211    0.4099 H         1 <0>         0.1415
     44 H10         2.7283   -0.2816    0.5980 H         1 <0>         0.1408
     45 H11         4.2285   -4.2651    0.1733 H         1 <0>         0.1355
     46 H12         1.9312   -5.1186   -0.0043 H         1 <0>         0.1432
     47 H13         5.8313   -3.4427    1.2312 H         1 <0>         0.0893
     48 H14         5.8979   -3.2297   -0.5348 H         1 <0>         0.1127
     49 H15         8.0975   -2.7309    0.4318 H         1 <0>         0.1504
     50 H16         7.3737   -1.2321   -0.1990 H         1 <0>         0.1436
     51 H17         9.4861   -1.2428    1.8552 H         1 <0>         0.1295
     52 H18         8.6132    0.1521    1.1781 H         1 <0>         0.1314
     53 H19         9.5982    0.7032    3.3868 H         1 <0>         0.1133
     54 H20         7.8194    0.7572    3.4489 H         1 <0>         0.0880
     55 H21         9.5878   -1.5615    4.3556 H         1 <0>         0.0823
     56 H22         8.6856   -0.4483    5.4139 H         1 <0>         0.0949
     57 H23         7.4742   -2.6108    5.0621 H         1 <0>         0.1125
     58 H24         6.5550   -1.2155    4.4462 H         1 <0>         0.0878
     59 H25         6.5398   -3.0828    2.8135 H         1 <0>         0.1272
     60 H26         8.3188   -3.0642    2.7759 H         1 <0>         0.1308
     61 H27        -0.4076   -2.9906   -6.9827 H         1 <0>         0.3988
     62 H28         6.5925   -0.8047    2.0535 H         1 <0>         0.4291
@<TRIPOS>BOND
     1    1    6 ar
     2    1    2 ar
     3    1   35 1
     4    2    3 ar
     5    2   36 1
     6    3    4 ar
     7    3   34 1
     8    4    5 ar
     9    4   37 1
    10    5    6 ar
    11    5   38 1
    12    6    7 1
    13    7   15 1
    14    7    8 2
    15    8    9 1
    16    8   17 1
    17    9   14 ar
    18    9   10 ar
    19   10   11 ar
    20   10   39 1
    21   11   12 ar
    22   11   40 1
    23   12   13 ar
    24   12   16 1
    25   13   14 ar
    26   13   41 1
    27   14   15 1
    28   16   42 1
    29   17   18 2
    30   17   19 1
    31   19   24 ar
    32   19   20 ar
    33   20   21 ar
    34   20   43 1
    35   21   22 ar
    36   21   44 1
    37   22   23 ar
    38   22   25 1
    39   23   24 ar
    40   23   45 1
    41   24   46 1
    42   25   26 1
    43   26   27 1
    44   26   47 1
    45   26   48 1
    46   27   28 1
    47   27   49 1
    48   27   50 1
    49   28   33 1
    50   28   29 1
    51   28   62 1
    52   29   30 1
    53   29   51 1
    54   29   52 1
    55   30   31 1
    56   30   53 1
    57   30   54 1
    58   31   32 1
    59   31   55 1
    60   31   56 1
    61   32   33 1
    62   32   57 1
    63   32   58 1
    64   33   59 1
    65   33   60 1
    66   34   61 1
