@<TRIPOS>MOLECULE
CHEMBL57093
   59    62     0     0     0
SMALL
USER_CHARGES

@<TRIPOS>ATOM
      1 C1         -0.0187    1.5258    0.0104 C.3       1 <0>        -0.1546
      2 C2          0.0021   -0.0041    0.0020 C.3       1 <0>        -0.1450
      3 C3         -1.4333   -0.5336    0.0129 C.3       1 <0>         0.1075
      4 N1         -1.4134   -1.9985    0.0048 N.pl3     1 <0>        -0.5775
      5 C4         -1.3914   -2.7377    1.2694 C.3       1 <0>         0.1471
      6 C5         -2.8045   -3.0105    1.7165 C.ar      1 <0>         0.0842
      7 C6         -3.3983   -4.2192    1.4047 C.ar      1 <0>        -0.1722
      8 C7         -4.6986   -4.4602    1.8207 C.ar      1 <0>        -0.0625
      9 C8         -5.3559   -3.4720    2.5380 C.ar      1 <0>        -0.1518
     10 C9         -4.6977   -2.2884    2.8124 C.ar      1 <0>         0.1144
     11 N2         -3.4582   -2.0957    2.4052 N.ar      1 <0>        -0.4619
     12 C10        -1.4155   -2.6871   -1.2029 C.ar      1 <0>         0.4590
     13 C11        -1.4307   -1.9770   -2.3975 C.ar      1 <0>        -0.2156
     14 C12        -1.4322   -2.6769   -3.6048 C.ar      1 <0>         0.1342
     15 C13        -1.4182   -4.0734   -3.5626 C.ar      1 <0>        -0.1739
     16 C14        -1.4035   -4.7122   -2.3283 C.ar      1 <0>         0.2448
     17 N3         -1.3975   -4.0102   -1.2005 N.ar      1 <0>        -0.5219
     18 C15        -1.3886   -6.1938   -2.2698 C.ar      1 <0>        -0.1106
     19 C16        -1.3795   -6.8441   -1.0363 C.ar      1 <0>        -0.0887
     20 C17        -1.3661   -8.2216   -0.9851 C.ar      1 <0>        -0.1315
     21 C18        -1.3612   -8.9616   -2.1603 C.ar      1 <0>         0.1546
     22 C19        -1.3702   -8.3170   -3.3899 C.ar      1 <0>        -0.0993
     23 C20        -1.3894   -6.9394   -3.4476 C.ar      1 <0>        -0.0532
     24 C21        -1.3648   -9.1237   -4.6628 C.3       1 <0>        -0.1235
     25 O1         -1.3471  -10.3189   -2.1066 O.3       1 <0>        -0.4882
     26 C22        -1.4487   -1.9556   -4.9016 C.ar      1 <0>        -0.1015
     27 C23        -1.4572   -0.5625   -4.9267 C.ar      1 <0>        -0.0780
     28 C24        -1.4720    0.1033   -6.1357 C.ar      1 <0>        -0.1194
     29 C25        -1.4785   -0.6100   -7.3208 C.ar      1 <0>        -0.0773
     30 C26        -1.4702   -1.9930   -7.3017 C.ar      1 <0>        -0.1191
     31 C27        -1.4500   -2.6689   -6.0985 C.ar      1 <0>        -0.0782
     32 H1          1.0039    1.9031    0.0027 H         1 <0>         0.0683
     33 H2         -0.5459    1.8868   -0.8726 H         1 <0>         0.0600
     34 H3         -0.5289    1.8773    0.9072 H         1 <0>         0.0637
     35 H4          0.5123   -0.3556   -0.8948 H         1 <0>         0.0693
     36 H5          0.5293   -0.3651    0.8851 H         1 <0>         0.0747
     37 H6         -1.9435   -0.1821    0.9097 H         1 <0>         0.1131
     38 H7         -1.9605   -0.1726   -0.8702 H         1 <0>         0.0931
     39 H8         -0.8660   -3.6823    1.1290 H         1 <0>         0.0906
     40 H9         -0.8784   -2.1458    2.0274 H         1 <0>         0.1329
     41 H10        -2.8563   -4.9662    0.8438 H         1 <0>         0.1170
     42 H11        -5.1881   -5.3951    1.5913 H         1 <0>         0.1438
     43 H12        -6.3695   -3.6254    2.8776 H         1 <0>         0.1476
     44 H13        -5.2027   -1.5138    3.3705 H         1 <0>         0.1687
     45 H14        -1.4416   -0.8971   -2.3915 H         1 <0>         0.1791
     46 H15        -1.4193   -4.6487   -4.4767 H         1 <0>         0.1779
     47 H16        -1.3826   -6.2692   -0.1221 H         1 <0>         0.1195
     48 H17        -1.3591   -8.7259   -0.0301 H         1 <0>         0.1475
     49 H18        -1.4009   -6.4385   -4.4044 H         1 <0>         0.1443
     50 H19        -2.3911   -9.3284   -4.9676 H         1 <0>         0.0810
     51 H20        -0.8582   -8.5614   -5.4472 H         1 <0>         0.0768
     52 H21        -0.8412  -10.0648   -4.4944 H         1 <0>         0.0840
     53 H22        -2.2264  -10.7210   -2.0891 H         1 <0>         0.4053
     54 H23        -1.4524   -0.0046   -4.0020 H         1 <0>         0.1300
     55 H24        -1.4789    1.1830   -6.1563 H         1 <0>         0.1371
     56 H25        -1.4905   -0.0850   -8.2646 H         1 <0>         0.1363
     57 H26        -1.4753   -2.5450   -8.2299 H         1 <0>         0.1376
     58 H27        -1.4394   -3.7488   -6.0847 H         1 <0>         0.1317
     59 H28        -1.3834   -4.4804   -0.3522 H         1 <0>         0.4287
@<TRIPOS>BOND
     1    1    2 1
     2    1   32 1
     3    1   33 1
     4    1   34 1
     5    2    3 1
     6    2   35 1
     7    2   36 1
     8    3    4 1
     9    3   37 1
    10    3   38 1
    11    4    5 1
    12    4   12 1
    13    5    6 1
    14    5   39 1
    15    5   40 1
    16    6   11 ar
    17    6    7 ar
    18    7    8 ar
    19    7   41 1
    20    8    9 ar
    21    8   42 1
    22    9   10 ar
    23    9   43 1
    24   10   11 ar
    25   10   44 1
    26   12   17 ar
    27   12   13 ar
    28   13   14 ar
    29   13   45 1
    30   14   15 ar
    31   14   26 1
    32   15   16 ar
    33   15   46 1
    34   16   17 ar
    35   16   18 1
    36   17   59 1
    37   18   23 ar
    38   18   19 ar
    39   19   20 ar
    40   19   47 1
    41   20   21 ar
    42   20   48 1
    43   21   22 ar
    44   21   25 1
    45   22   23 ar
    46   22   24 1
    47   23   49 1
    48   24   50 1
    49   24   51 1
    50   24   52 1
    51   25   53 1
    52   26   31 ar
    53   26   27 ar
    54   27   28 ar
    55   27   54 1
    56   28   29 ar
    57   28   55 1
    58   29   30 ar
    59   29   56 1
    60   30   31 ar
    61   30   57 1
    62   31   58 1
