@<TRIPOS>MOLECULE
CHEMBL362428
   68    72     0     0     0
SMALL
USER_CHARGES

@<TRIPOS>ATOM
      1 C1          0.4656    2.1110   -0.0081 C.3       1 <0>        -0.1485
      2 C2          0.5794    0.5881   -0.1004 C.3       1 <0>        -0.0422
      3 H1          1.1826    0.3213   -0.9682 H         1 <0>         0.0958
      4 C3         -0.7973   -0.0103   -0.2432 C.ar      1 <0>        -0.1647
      5 C4         -1.4183    0.0372   -1.4808 C.ar      1 <0>        -0.0663
      6 C5         -2.6800   -0.4959   -1.6498 C.ar      1 <0>        -0.1719
      7 C6         -3.3330   -1.0835   -0.5752 C.ar      1 <0>         0.1443
      8 C7         -2.7145   -1.1346    0.6625 C.ar      1 <0>        -0.1784
      9 C8         -1.4425   -0.5987    0.8309 C.ar      1 <0>         0.1525
     10 O1         -0.8642   -0.6775    2.0577 O.3       1 <0>        -0.3002
     11 C9          0.2497    0.1749    2.3268 C.3       1 <0>         0.1432
     12 H2         -0.0896    1.2075    2.4087 H         1 <0>         0.0900
     13 C10         1.2456    0.0493    1.1680 C.3       1 <0>        -0.0711
     14 H3          2.1402    0.6316    1.3889 H         1 <0>         0.1017
     15 C11         1.6163   -1.3981    0.9715 C.ar      1 <0>        -0.0871
     16 C12         0.8017   -2.2230    0.2182 C.ar      1 <0>        -0.1011
     17 C13         1.1391   -3.5503    0.0369 C.ar      1 <0>        -0.1424
     18 C14         2.2966   -4.0552    0.6112 C.ar      1 <0>         0.1081
     19 C15         3.1126   -3.2253    1.3663 C.ar      1 <0>        -0.1484
     20 C16         2.7734   -1.8975    1.5402 C.ar      1 <0>        -0.0910
     21 O2          2.6305   -5.3607    0.4347 O.3       1 <0>        -0.5011
     22 C17         0.9112   -0.2455    3.6139 C.ar      1 <0>        -0.1057
     23 C18         1.0631   -1.5886    3.9051 C.ar      1 <0>        -0.0366
     24 C19         1.6687   -1.9766    5.0846 C.ar      1 <0>        -0.1425
     25 C20         2.1252   -1.0174    5.9768 C.ar      1 <0>         0.1204
     26 C21         1.9721    0.3296    5.6820 C.ar      1 <0>        -0.2044
     27 C22         1.3704    0.7124    4.4988 C.ar      1 <0>        -0.0625
     28 O3          2.7210   -1.3965    7.1379 O.3       1 <0>        -0.3275
     29 C23         3.1665   -0.3548    8.0088 C.3       1 <0>         0.0255
     30 C24         3.8061   -0.9705    9.2549 C.3       1 <0>        -0.0013
     31 N1          5.0163   -1.7090    8.8701 N.4       1 <0>        -0.3843
     32 C25         5.5381   -2.4319   10.0361 C.3       1 <0>        -0.0070
     33 C26         6.7516   -3.2670    9.6221 C.3       1 <0>        -0.1469
     34 C27         7.8368   -2.3401    9.0667 C.3       1 <0>        -0.1389
     35 C28         7.2590   -1.5369    7.8979 C.3       1 <0>        -0.1453
     36 C29         6.0266   -0.7659    8.3757 C.3       1 <0>        -0.0131
     37 O4         -4.5765   -1.6071   -0.7374 O.3       1 <0>        -0.4947
     38 H4          1.4606    2.5443    0.0936 H         1 <0>         0.0642
     39 H5         -0.0074    2.4955   -0.9118 H         1 <0>         0.0671
     40 H6         -0.1375    2.3784    0.8595 H         1 <0>         0.0567
     41 H7         -0.9122    0.4943   -2.3182 H         1 <0>         0.1325
     42 H8         -3.1586   -0.4562   -2.6172 H         1 <0>         0.1341
     43 H9         -3.2218   -1.5911    1.4996 H         1 <0>         0.1374
     44 H10        -0.0994   -1.8295   -0.2286 H         1 <0>         0.1428
     45 H11         0.5021   -4.1945   -0.5510 H         1 <0>         0.1278
     46 H12         4.0142   -3.6160    1.8144 H         1 <0>         0.1252
     47 H13         3.4106   -1.2499    2.1243 H         1 <0>         0.1200
     48 H14         3.1812   -5.5242   -0.3432 H         1 <0>         0.3933
     49 H15         0.7075   -2.3349    3.2102 H         1 <0>         0.1379
     50 H16         1.7865   -3.0258    5.3120 H         1 <0>         0.1334
     51 H17         2.3266    1.0782    6.3750 H         1 <0>         0.1296
     52 H18         1.2549    1.7609    4.2668 H         1 <0>         0.1328
     53 H19         3.9005    0.2626    7.4910 H         1 <0>         0.0862
     54 H20         2.3166    0.2609    8.3032 H         1 <0>         0.1096
     55 H21         4.0709   -0.1792    9.9561 H         1 <0>         0.1490
     56 H22         3.0990   -1.6526    9.7270 H         1 <0>         0.1428
     57 H23         5.8343   -1.7169   10.8037 H         1 <0>         0.1292
     58 H24         4.7636   -3.0887   10.4322 H         1 <0>         0.1311
     59 H25         7.1386   -3.8016   10.4896 H         1 <0>         0.1131
     60 H26         6.4564   -3.9826    8.8548 H         1 <0>         0.0881
     61 H27         8.1687   -1.6577    9.8491 H         1 <0>         0.0821
     62 H28         8.6809   -2.9351    8.7181 H         1 <0>         0.0947
     63 H29         8.0086   -0.8348    7.5329 H         1 <0>         0.1121
     64 H30         6.9743   -2.2166    7.0947 H         1 <0>         0.0878
     65 H31         5.6129   -0.1928    7.5460 H         1 <0>         0.1271
     66 H32         6.3125   -0.0864    9.1787 H         1 <0>         0.1302
     67 H33        -4.5803   -2.5392   -0.9948 H         1 <0>         0.3963
     68 H34         4.7889   -2.3691    8.1417 H         1 <0>         0.4295
@<TRIPOS>BOND
     1    1    2 1
     2    1   38 1
     3    1   39 1
     4    1   40 1
     5    2    3 1
     6    2   13 1
     7    2    4 1
     8    4    9 ar
     9    4    5 ar
    10    5    6 ar
    11    5   41 1
    12    6    7 ar
    13    6   42 1
    14    7    8 ar
    15    7   37 1
    16    8    9 ar
    17    8   43 1
    18    9   10 1
    19   10   11 1
    20   11   12 1
    21   11   13 1
    22   11   22 1
    23   13   14 1
    24   13   15 1
    25   15   20 ar
    26   15   16 ar
    27   16   17 ar
    28   16   44 1
    29   17   18 ar
    30   17   45 1
    31   18   19 ar
    32   18   21 1
    33   19   20 ar
    34   19   46 1
    35   20   47 1
    36   21   48 1
    37   22   27 ar
    38   22   23 ar
    39   23   24 ar
    40   23   49 1
    41   24   25 ar
    42   24   50 1
    43   25   26 ar
    44   25   28 1
    45   26   27 ar
    46   26   51 1
    47   27   52 1
    48   28   29 1
    49   29   30 1
    50   29   53 1
    51   29   54 1
    52   30   31 1
    53   30   55 1
    54   30   56 1
    55   31   36 1
    56   31   32 1
    57   31   68 1
    58   32   33 1
    59   32   57 1
    60   32   58 1
    61   33   34 1
    62   33   59 1
    63   33   60 1
    64   34   35 1
    65   34   61 1
    66   34   62 1
    67   35   36 1
    68   35   63 1
    69   35   64 1
    70   36   65 1
    71   36   66 1
    72   37   67 1
