@<TRIPOS>MOLECULE
CHEMBL122237
   66    70     0     0     0
SMALL
USER_CHARGES

@<TRIPOS>ATOM
      1 C1          0.9014    1.3024   -0.7284 C.ar      1 <0>        -0.0951
      2 C2          1.9142    2.0902   -0.2141 C.ar      1 <0>        -0.1010
      3 C3          3.1112    1.5142    0.1686 C.ar      1 <0>        -0.0674
      4 C4          3.2951    0.1504    0.0374 C.ar      1 <0>        -0.0777
      5 C5          2.2819   -0.6374   -0.4760 C.ar      1 <0>        -0.0998
      6 C6          1.0855   -0.0613   -0.8600 C.ar      1 <0>        -0.0953
      7 C7         -0.0189   -0.9201   -1.4202 C.3       1 <0>         0.1092
      8 O1          0.1182   -1.0060   -2.8400 O.3       1 <0>        -0.3929
      9 C8         -0.8851   -1.8023   -3.4737 C.3       1 <0>         0.0269
     10 C9         -0.6408   -1.8236   -4.9839 C.3       1 <0>        -0.0018
     11 N1          0.6318   -2.5016   -5.2646 N.4       1 <0>        -0.3827
     12 C10         0.9328   -2.4002   -6.6976 C.3       1 <0>        -0.0067
     13 C11         2.2961   -3.0341   -6.9824 C.3       1 <0>        -0.1468
     14 C12         2.2639   -4.5083   -6.5690 C.3       1 <0>        -0.1387
     15 C13         1.8762   -4.6054   -5.0907 C.3       1 <0>        -0.1455
     16 C14         0.5284   -3.9133   -4.8760 C.3       1 <0>        -0.0120
     17 C15         4.2157    2.3731    0.7283 C.3       1 <0>         0.1455
     18 H1          4.0530    3.4111    0.4380 H         1 <0>         0.0970
     19 C16         4.2253    2.2636    2.2622 C.3       1 <0>        -0.0651
     20 H2          3.2395    2.5068    2.6586 H         1 <0>         0.1400
     21 S1          5.4531    3.4608    2.8731 S.3       1 <0>        -0.0801
     22 C17         6.8039    3.2304    1.7582 C.ar      1 <0>        -0.1485
     23 C18         8.0410    3.7756    2.0759 C.ar      1 <0>        -0.0893
     24 C19         9.1139    3.6159    1.2141 C.ar      1 <0>         0.0982
     25 C20         8.9446    2.9110    0.0314 C.ar      1 <0>        -0.1074
     26 C21         7.7167    2.3664   -0.2831 C.ar      1 <0>        -0.1152
     27 C22         6.6324    2.5148    0.5786 C.ar      1 <0>         0.1211
     28 O2          5.4652    1.9289    0.2222 O.3       1 <0>        -0.3049
     29 O3         10.3260    4.1475    1.5256 O.3       1 <0>        -0.4918
     30 C23         4.6154    0.8679    2.6756 C.ar      1 <0>        -0.0884
     31 C24         5.9350    0.4649    2.5855 C.ar      1 <0>        -0.0882
     32 C25         6.2951   -0.8141    2.9634 C.ar      1 <0>        -0.1410
     33 C26         5.3316   -1.6943    3.4341 C.ar      1 <0>         0.1146
     34 C27         4.0083   -1.2873    3.5240 C.ar      1 <0>        -0.1449
     35 C28         3.6542   -0.0056    3.1497 C.ar      1 <0>        -0.0813
     36 O4          5.6832   -2.9532    3.8061 O.3       1 <0>        -0.5006
     37 H3         -0.0354    1.7518   -1.0232 H         1 <0>         0.1288
     38 H4          1.7705    3.1556   -0.1117 H         1 <0>         0.1318
     39 H5          4.2305   -0.2995    0.3358 H         1 <0>         0.1308
     40 H6          2.4259   -1.7028   -0.5791 H         1 <0>         0.1233
     41 H7          0.0429   -1.9189   -0.9881 H         1 <0>         0.0674
     42 H8         -0.9840   -0.4770   -1.1745 H         1 <0>         0.0711
     43 H9         -0.8413   -2.8194   -3.0842 H         1 <0>         0.0749
     44 H10        -1.8681   -1.3775   -3.2705 H         1 <0>         0.0984
     45 H11        -1.4535   -2.3580   -5.4759 H         1 <0>         0.1426
     46 H12        -0.5983   -0.8012   -5.3595 H         1 <0>         0.1392
     47 H13         0.1640   -2.9217   -7.2677 H         1 <0>         0.1280
     48 H14         0.9522   -1.3506   -6.9910 H         1 <0>         0.1300
     49 H15         2.5170   -2.9594   -8.0472 H         1 <0>         0.1123
     50 H16         3.0658   -2.5131   -6.4130 H         1 <0>         0.0877
     51 H17         1.5299   -5.0405   -7.1741 H         1 <0>         0.0817
     52 H18         3.2493   -4.9500   -6.7172 H         1 <0>         0.0942
     53 H19         1.7968   -5.6538   -4.8033 H         1 <0>         0.1115
     54 H20         2.6371   -4.1170   -4.4820 H         1 <0>         0.0876
     55 H21         0.2492   -3.9808   -3.8246 H         1 <0>         0.1276
     56 H22        -0.2318   -4.4026   -5.4850 H         1 <0>         0.1286
     57 H23         8.1670    4.3251    2.9971 H         1 <0>         0.1408
     58 H24         9.7772    2.7878   -0.6455 H         1 <0>         0.1421
     59 H25         7.5949    1.8197   -1.2065 H         1 <0>         0.1396
     60 H26        10.8982    3.5533    2.0302 H         1 <0>         0.3946
     61 H27         6.6847    1.1505    2.2190 H         1 <0>         0.1312
     62 H28         7.3258   -1.1287    2.8922 H         1 <0>         0.1299
     63 H29         3.2564   -1.9707    3.8900 H         1 <0>         0.1306
     64 H30         2.6249    0.3132    3.2236 H         1 <0>         0.1256
     65 H31         5.9285   -3.0339    4.7380 H         1 <0>         0.3954
     66 H32         1.3700   -2.0615   -4.7360 H         1 <0>         0.4299
@<TRIPOS>BOND
     1    1    6 ar
     2    1    2 ar
     3    1   37 1
     4    2    3 ar
     5    2   38 1
     6    3    4 ar
     7    3   17 1
     8    4    5 ar
     9    4   39 1
    10    5    6 ar
    11    5   40 1
    12    6    7 1
    13    7    8 1
    14    7   41 1
    15    7   42 1
    16    8    9 1
    17    9   10 1
    18    9   43 1
    19    9   44 1
    20   10   11 1
    21   10   45 1
    22   10   46 1
    23   11   16 1
    24   11   12 1
    25   11   66 1
    26   12   13 1
    27   12   47 1
    28   12   48 1
    29   13   14 1
    30   13   49 1
    31   13   50 1
    32   14   15 1
    33   14   51 1
    34   14   52 1
    35   15   16 1
    36   15   53 1
    37   15   54 1
    38   16   55 1
    39   16   56 1
    40   17   18 1
    41   17   28 1
    42   17   19 1
    43   19   20 1
    44   19   21 1
    45   19   30 1
    46   21   22 1
    47   22   27 ar
    48   22   23 ar
    49   23   24 ar
    50   23   57 1
    51   24   25 ar
    52   24   29 1
    53   25   26 ar
    54   25   58 1
    55   26   27 ar
    56   26   59 1
    57   27   28 1
    58   29   60 1
    59   30   35 ar
    60   30   31 ar
    61   31   32 ar
    62   31   61 1
    63   32   33 ar
    64   32   62 1
    65   33   34 ar
    66   33   36 1
    67   34   35 ar
    68   34   63 1
    69   35   64 1
    70   36   65 1
