@<TRIPOS>MOLECULE
CHEMBL1082743
   36    38     0     0     0
SMALL
USER_CHARGES

@<TRIPOS>ATOM
      1 C1          1.7118   -1.3977    2.4467 C.3       1 <0>         0.0220
      2 O1          0.9064   -1.4642    1.2682 O.3       1 <0>        -0.3094
      3 C2          1.4723   -2.0169    0.1656 C.ar      1 <0>         0.1694
      4 C3          2.7777   -2.4917    0.2206 C.ar      1 <0>        -0.2221
      5 C4          3.3556   -3.0533   -0.8957 C.ar      1 <0>        -0.0079
      6 C5          2.6276   -3.1461   -2.0856 C.ar      1 <0>        -0.1693
      7 C6          1.3150   -2.6678   -2.1364 C.ar      1 <0>        -0.0193
      8 C7          0.7430   -2.1120   -1.0141 C.ar      1 <0>        -0.1652
      9 C8          3.2427   -3.7463   -3.2837 C.2       1 <0>         0.5100
     10 O2          4.3840   -4.1612   -3.2378 O.2       1 <0>        -0.4875
     11 O3          2.5392   -3.8348   -4.4297 O.3       1 <0>        -0.2895
     12 C9          3.1775   -4.2980   -5.5357 C.ar      1 <0>         0.0940
     13 C10         3.7464   -3.4236   -6.4187 C.ar      1 <0>        -0.1049
     14 C11         4.4043   -3.8827   -7.5561 C.ar      1 <0>        -0.1085
     15 C12         4.5003   -5.2151   -7.8222 C.ar      1 <0>        -0.0880
     16 C13         3.9289   -6.1455   -6.9393 C.ar      1 <0>        -0.0668
     17 C14         3.2629   -5.6840   -5.7775 C.ar      1 <0>        -0.0387
     18 C15         2.6956   -6.6149   -4.8918 C.ar      1 <0>        -0.1097
     19 C16         2.7957   -7.9471   -5.1554 C.ar      1 <0>        -0.0934
     20 C17         3.4542   -8.4064   -6.2931 C.ar      1 <0>        -0.1401
     21 C18         4.0096   -7.5318   -7.1838 C.ar      1 <0>         0.1218
     22 O4          4.6483   -7.9951   -8.2893 O.3       1 <0>        -0.4913
     23 H1          2.0068   -2.4045    2.7424 H         1 <0>         0.0608
     24 H2          2.6025   -0.8026    2.2450 H         1 <0>         0.0609
     25 H3          1.1405   -0.9353    3.2516 H         1 <0>         0.1059
     26 H4          3.3394   -2.4197    1.1402 H         1 <0>         0.1408
     27 H5          4.3701   -3.4213   -0.8523 H         1 <0>         0.1421
     28 H6          0.7491   -2.7376   -3.0536 H         1 <0>         0.1475
     29 H7         -0.2724   -1.7460   -1.0513 H         1 <0>         0.1432
     30 H8          3.6842   -2.3617   -6.2315 H         1 <0>         0.1342
     31 H9          4.8452   -3.1713   -8.2386 H         1 <0>         0.1357
     32 H10         5.0140   -5.5548   -8.7094 H         1 <0>         0.1381
     33 H11         2.1821   -6.2753   -4.0045 H         1 <0>         0.1262
     34 H12         2.3578   -8.6587   -4.4712 H         1 <0>         0.1316
     35 H13         3.5199   -9.4684   -6.4781 H         1 <0>         0.1339
     36 H14         5.5910   -8.1649   -8.1568 H         1 <0>         0.3934
@<TRIPOS>BOND
     1    1    2 1
     2    1   23 1
     3    1   24 1
     4    1   25 1
     5    2    3 1
     6    3    8 ar
     7    3    4 ar
     8    4    5 ar
     9    4   26 1
    10    5    6 ar
    11    5   27 1
    12    6    7 ar
    13    6    9 1
    14    7    8 ar
    15    7   28 1
    16    8   29 1
    17    9   10 2
    18    9   11 1
    19   11   12 1
    20   12   17 ar
    21   12   13 ar
    22   13   14 ar
    23   13   30 1
    24   14   15 ar
    25   14   31 1
    26   15   16 ar
    27   15   32 1
    28   16   21 ar
    29   16   17 ar
    30   17   18 ar
    31   18   19 ar
    32   18   33 1
    33   19   20 ar
    34   19   34 1
    35   20   21 ar
    36   20   35 1
    37   21   22 1
    38   22   36 1
