@<TRIPOS>MOLECULE
CHEMBL30996
   69    73     0     0     0
SMALL
USER_CHARGES

@<TRIPOS>ATOM
      1 C1         -0.3916    2.3376   -0.1454 C.3       1 <0>        -0.1459
      2 C2         -0.3893    0.8459    0.1949 C.3       1 <0>        -0.0890
      3 C3         -1.8076    0.3432    0.2584 C.ar      1 <0>        -0.0715
      4 C4         -2.4981    0.3655    1.4554 C.ar      1 <0>        -0.1158
      5 C5         -3.8052   -0.0811    1.5099 C.ar      1 <0>        -0.1036
      6 C6         -4.4490   -0.5329    0.3689 C.ar      1 <0>        -0.0381
      7 C7         -3.7196   -0.6053   -0.8259 C.ar      1 <0>        -0.0711
      8 C8         -2.4181   -0.1538   -0.8779 C.ar      1 <0>        -0.1081
      9 C9         -4.3426   -1.2261   -2.0484 C.3       1 <0>        -0.0060
     10 C10        -5.2532   -2.3789   -1.6296 C.3       1 <0>        -0.0752
     11 C11        -6.2598   -1.8866   -0.6217 C.ar      1 <0>        -0.0497
     12 C12        -5.8713   -0.9461    0.3407 C.ar      1 <0>        -0.0516
     13 C13        -6.8468   -0.3916    1.1587 C.ar      1 <0>        -0.0494
     14 C14        -8.1366   -0.8972    1.1420 C.ar      1 <0>        -0.1524
     15 C15        -8.4863   -1.9029    0.2561 C.ar      1 <0>         0.1190
     16 C16        -7.5433   -2.3845   -0.6411 C.ar      1 <0>        -0.1475
     17 O1         -9.7434   -2.4162    0.2643 O.3       1 <0>        -0.4954
     18 C17        -6.5823    0.8063    2.0354 C.3       1 <0>        -0.1359
     19 C18        -5.1469   -0.1899   -2.7904 C.ar      1 <0>        -0.0883
     20 C19        -5.8300    0.7861   -2.0887 C.ar      1 <0>        -0.0655
     21 C20        -6.5683    1.7369   -2.7665 C.ar      1 <0>        -0.1401
     22 C21        -6.6236    1.7120   -4.1525 C.ar      1 <0>         0.1095
     23 C22        -5.9369    0.7319   -4.8543 C.ar      1 <0>        -0.2015
     24 C23        -5.1958   -0.2135   -4.1720 C.ar      1 <0>        -0.0743
     25 O2         -7.3496    2.6459   -4.8215 O.3       1 <0>        -0.3295
     26 C24        -7.3612    2.5591   -6.2479 C.3       1 <0>         0.0262
     27 C25        -8.2242    3.6853   -6.8203 C.3       1 <0>        -0.0008
     28 N1         -7.6210    4.9824   -6.4865 N.4       1 <0>        -0.3840
     29 C26        -8.5265    6.0619   -6.8981 C.3       1 <0>        -0.0069
     30 C27        -7.9401    7.4120   -6.4798 C.3       1 <0>        -0.1467
     31 C28        -6.5780    7.6015   -7.1536 C.3       1 <0>        -0.1388
     32 C29        -5.6657    6.4306   -6.7767 C.3       1 <0>        -0.1453
     33 C30        -6.3364    5.1169   -7.1839 C.3       1 <0>        -0.0129
     34 H1          0.6349    2.7013   -0.1914 H         1 <0>         0.0603
     35 H2         -0.8745    2.4893   -1.1107 H         1 <0>         0.0528
     36 H3         -0.9369    2.8848    0.6236 H         1 <0>         0.0560
     37 H4          0.1560    0.2987   -0.5741 H         1 <0>         0.0732
     38 H5          0.0935    0.6942    1.1602 H         1 <0>         0.0752
     39 H6         -2.0173    0.7308    2.3510 H         1 <0>         0.1268
     40 H7         -4.2890   -0.1192    2.4764 H         1 <0>         0.1312
     41 H8         -1.8721   -0.1876   -1.8101 H         1 <0>         0.1227
     42 H9         -3.5563   -1.6089   -2.6977 H         1 <0>         0.0978
     43 H10        -5.7748   -2.7624   -2.5038 H         1 <0>         0.0848
     44 H11        -4.6523   -3.1686   -1.1831 H         1 <0>         0.0899
     45 H12        -8.8712   -0.4990    1.8274 H         1 <0>         0.1308
     46 H13        -7.8172   -3.1494   -1.3532 H         1 <0>         0.1300
     47 H14       -10.3593   -1.9576   -0.3233 H         1 <0>         0.3908
     48 H15        -6.9034    1.7116    1.5201 H         1 <0>         0.0727
     49 H16        -7.1365    0.7033    2.9683 H         1 <0>         0.0732
     50 H17        -5.5159    0.8701    2.2514 H         1 <0>         0.0825
     51 H18        -5.7866    0.8051   -1.0097 H         1 <0>         0.1406
     52 H19        -7.1022    2.4986   -2.2179 H         1 <0>         0.1292
     53 H20        -5.9784    0.7104   -5.9333 H         1 <0>         0.1263
     54 H21        -4.6575   -0.9740   -4.7181 H         1 <0>         0.1306
     55 H22        -6.3432    2.6533   -6.6259 H         1 <0>         0.0855
     56 H23        -7.7732    1.5962   -6.5499 H         1 <0>         0.1083
     57 H24        -8.2856    3.5811   -7.9036 H         1 <0>         0.1485
     58 H25        -9.2252    3.6292   -6.3926 H         1 <0>         0.1420
     59 H26        -8.6494    6.0394   -7.9809 H         1 <0>         0.1291
     60 H27        -9.4964    5.9238   -6.4202 H         1 <0>         0.1308
     61 H28        -8.6131    8.2122   -6.7879 H         1 <0>         0.1130
     62 H29        -7.8170    7.4356   -5.3971 H         1 <0>         0.0879
     63 H30        -6.7073    7.6291   -8.2356 H         1 <0>         0.0821
     64 H31        -6.1306    8.5359   -6.8149 H         1 <0>         0.0947
     65 H32        -4.7130    6.5295   -7.2969 H         1 <0>         0.1122
     66 H33        -5.4954    6.4339   -5.7001 H         1 <0>         0.0878
     67 H34        -5.6894    4.2813   -6.9171 H         1 <0>         0.1272
     68 H35        -6.5060    5.1146   -8.2606 H         1 <0>         0.1301
     69 H36        -7.4689    5.0351   -5.4905 H         1 <0>         0.4295
@<TRIPOS>BOND
     1    1    2 1
     2    1   34 1
     3    1   35 1
     4    1   36 1
     5    2    3 1
     6    2   37 1
     7    2   38 1
     8    3    8 ar
     9    3    4 ar
    10    4    5 ar
    11    4   39 1
    12    5    6 ar
    13    5   40 1
    14    6   12 1
    15    6    7 ar
    16    7    8 ar
    17    7    9 1
    18    8   41 1
    19    9   10 1
    20    9   19 1
    21    9   42 1
    22   10   11 1
    23   10   43 1
    24   10   44 1
    25   11   16 ar
    26   11   12 ar
    27   12   13 ar
    28   13   14 ar
    29   13   18 1
    30   14   15 ar
    31   14   45 1
    32   15   16 ar
    33   15   17 1
    34   16   46 1
    35   17   47 1
    36   18   48 1
    37   18   49 1
    38   18   50 1
    39   19   24 ar
    40   19   20 ar
    41   20   21 ar
    42   20   51 1
    43   21   22 ar
    44   21   52 1
    45   22   23 ar
    46   22   25 1
    47   23   24 ar
    48   23   53 1
    49   24   54 1
    50   25   26 1
    51   26   27 1
    52   26   55 1
    53   26   56 1
    54   27   28 1
    55   27   57 1
    56   27   58 1
    57   28   33 1
    58   28   29 1
    59   28   69 1
    60   29   30 1
    61   29   59 1
    62   29   60 1
    63   30   31 1
    64   30   61 1
    65   30   62 1
    66   31   32 1
    67   31   63 1
    68   31   64 1
    69   32   33 1
    70   32   65 1
    71   32   66 1
    72   33   67 1
    73   33   68 1
